
---------- Begin Simulation Statistics ----------
final_tick                                82479261000                       # Number of ticks from beginning of simulation (restored from checkpoints and never reset)
host_inst_rate                                 452364                       # Simulator instruction rate (inst/s)
host_mem_usage                                 681244                       # Number of bytes of host memory used
host_op_rate                                   453252                       # Simulator op (including micro ops) rate (op/s)
host_seconds                                   221.06                       # Real time elapsed on the host
host_tick_rate                              373106406                       # Simulator tick rate (ticks/s)
sim_freq                                 1000000000000                       # Frequency of simulated ticks
sim_insts                                   100000001                       # Number of instructions simulated
sim_ops                                     100196363                       # Number of ops (including micro ops) simulated
sim_seconds                                  0.082479                       # Number of seconds simulated
sim_ticks                                 82479261000                       # Number of ticks simulated
system.cpu.branchPred.BTBCorrect                    0                       # Number of correct BTB predictions (this stat may not work properly.
system.cpu.branchPred.BTBHitPct             99.617639                       # BTB Hit Percentage
system.cpu.branchPred.BTBHits                 2096250                       # Number of BTB hits
system.cpu.branchPred.BTBLookups              2104296                       # Number of BTB lookups
system.cpu.branchPred.RASInCorrect                  5                       # Number of incorrect RAS predictions.
system.cpu.branchPred.condIncorrect             81379                       # Number of conditional branches incorrect
system.cpu.branchPred.condPredicted           3728723                       # Number of conditional branches predicted
system.cpu.branchPred.indirectHits                301                       # Number of indirect target hits.
system.cpu.branchPred.indirectLookups            1019                       # Number of indirect predictor lookups.
system.cpu.branchPred.indirectMisses              718                       # Number of indirect misses.
system.cpu.branchPred.lookups                 4479111                       # Number of BP lookups
system.cpu.branchPred.usedRAS                   65349                       # Number of times the RAS was used to get a target.
system.cpu.branchPredindirectMispredicted          163                       # Number of mispredicted indirect branches.
system.cpu.committedInsts                   100000001                       # Number of instructions committed
system.cpu.committedOps                     100196363                       # Number of ops (including micro ops) committed
system.cpu.cpi                               1.649585                       # CPI: cycles per instruction
system.cpu.discardedOps                        190766                       # Number of ops (including micro ops) which were discarded before commit
system.cpu.dtb.accesses                             0                       # DTB accesses
system.cpu.dtb.align_faults                         0                       # Number of TLB faults due to alignment restrictions
system.cpu.dtb.domain_faults                        0                       # Number of TLB faults due to domain restrictions
system.cpu.dtb.flush_entries                        0                       # Number of entries that have been flushed from TLB
system.cpu.dtb.flush_tlb                            0                       # Number of times complete TLB was flushed
system.cpu.dtb.flush_tlb_asid                       0                       # Number of times TLB was flushed by ASID
system.cpu.dtb.flush_tlb_mva                        0                       # Number of times TLB was flushed by MVA
system.cpu.dtb.flush_tlb_mva_asid                   0                       # Number of times TLB was flushed by MVA & ASID
system.cpu.dtb.hits                                 0                       # DTB hits
system.cpu.dtb.inst_accesses                        0                       # ITB inst accesses
system.cpu.dtb.inst_hits                            0                       # ITB inst hits
system.cpu.dtb.inst_misses                          0                       # ITB inst misses
system.cpu.dtb.misses                               0                       # DTB misses
system.cpu.dtb.perms_faults                         0                       # Number of TLB faults due to permissions restrictions
system.cpu.dtb.prefetch_faults                      0                       # Number of TLB faults due to prefetch
system.cpu.dtb.read_accesses                        0                       # DTB read accesses
system.cpu.dtb.read_hits                            0                       # DTB read hits
system.cpu.dtb.read_misses                          0                       # DTB read misses
system.cpu.dtb.stage2_mmu.stage2_tlb.accesses            0                       # DTB accesses
system.cpu.dtb.stage2_mmu.stage2_tlb.align_faults            0                       # Number of TLB faults due to alignment restrictions
system.cpu.dtb.stage2_mmu.stage2_tlb.domain_faults            0                       # Number of TLB faults due to domain restrictions
system.cpu.dtb.stage2_mmu.stage2_tlb.flush_entries            0                       # Number of entries that have been flushed from TLB
system.cpu.dtb.stage2_mmu.stage2_tlb.flush_tlb            0                       # Number of times complete TLB was flushed
system.cpu.dtb.stage2_mmu.stage2_tlb.flush_tlb_asid            0                       # Number of times TLB was flushed by ASID
system.cpu.dtb.stage2_mmu.stage2_tlb.flush_tlb_mva            0                       # Number of times TLB was flushed by MVA
system.cpu.dtb.stage2_mmu.stage2_tlb.flush_tlb_mva_asid            0                       # Number of times TLB was flushed by MVA & ASID
system.cpu.dtb.stage2_mmu.stage2_tlb.hits            0                       # DTB hits
system.cpu.dtb.stage2_mmu.stage2_tlb.inst_accesses            0                       # ITB inst accesses
system.cpu.dtb.stage2_mmu.stage2_tlb.inst_hits            0                       # ITB inst hits
system.cpu.dtb.stage2_mmu.stage2_tlb.inst_misses            0                       # ITB inst misses
system.cpu.dtb.stage2_mmu.stage2_tlb.misses            0                       # DTB misses
system.cpu.dtb.stage2_mmu.stage2_tlb.perms_faults            0                       # Number of TLB faults due to permissions restrictions
system.cpu.dtb.stage2_mmu.stage2_tlb.prefetch_faults            0                       # Number of TLB faults due to prefetch
system.cpu.dtb.stage2_mmu.stage2_tlb.read_accesses            0                       # DTB read accesses
system.cpu.dtb.stage2_mmu.stage2_tlb.read_hits            0                       # DTB read hits
system.cpu.dtb.stage2_mmu.stage2_tlb.read_misses            0                       # DTB read misses
system.cpu.dtb.stage2_mmu.stage2_tlb.walker.walkRequestOrigin_Requested::Data            0                       # Table walker requests started/completed, data/inst
system.cpu.dtb.stage2_mmu.stage2_tlb.walker.walkRequestOrigin_Requested::Inst            0                       # Table walker requests started/completed, data/inst
system.cpu.dtb.stage2_mmu.stage2_tlb.walker.walkRequestOrigin_Requested::total            0                       # Table walker requests started/completed, data/inst
system.cpu.dtb.stage2_mmu.stage2_tlb.walker.walkRequestOrigin_Completed::Data            0                       # Table walker requests started/completed, data/inst
system.cpu.dtb.stage2_mmu.stage2_tlb.walker.walkRequestOrigin_Completed::Inst            0                       # Table walker requests started/completed, data/inst
system.cpu.dtb.stage2_mmu.stage2_tlb.walker.walkRequestOrigin_Completed::total            0                       # Table walker requests started/completed, data/inst
system.cpu.dtb.stage2_mmu.stage2_tlb.walker.walkRequestOrigin::total            0                       # Table walker requests started/completed, data/inst
system.cpu.dtb.stage2_mmu.stage2_tlb.walker.walks            0                       # Table walker walks requested
system.cpu.dtb.stage2_mmu.stage2_tlb.write_accesses            0                       # DTB write accesses
system.cpu.dtb.stage2_mmu.stage2_tlb.write_hits            0                       # DTB write hits
system.cpu.dtb.stage2_mmu.stage2_tlb.write_misses            0                       # DTB write misses
system.cpu.dtb.walker.walkRequestOrigin_Requested::Data            0                       # Table walker requests started/completed, data/inst
system.cpu.dtb.walker.walkRequestOrigin_Requested::Inst            0                       # Table walker requests started/completed, data/inst
system.cpu.dtb.walker.walkRequestOrigin_Requested::total            0                       # Table walker requests started/completed, data/inst
system.cpu.dtb.walker.walkRequestOrigin_Completed::Data            0                       # Table walker requests started/completed, data/inst
system.cpu.dtb.walker.walkRequestOrigin_Completed::Inst            0                       # Table walker requests started/completed, data/inst
system.cpu.dtb.walker.walkRequestOrigin_Completed::total            0                       # Table walker requests started/completed, data/inst
system.cpu.dtb.walker.walkRequestOrigin::total            0                       # Table walker requests started/completed, data/inst
system.cpu.dtb.walker.walks                         0                       # Table walker walks requested
system.cpu.dtb.write_accesses                       0                       # DTB write accesses
system.cpu.dtb.write_hits                           0                       # DTB write hits
system.cpu.dtb.write_misses                         0                       # DTB write misses
system.cpu.fetch2.amo_instructions                  0                       # Number of memory atomic instructions successfully decoded
system.cpu.fetch2.fp_instructions                   0                       # Number of floating point instructions successfully decoded
system.cpu.fetch2.int_instructions           42615015                       # Number of integer instructions successfully decoded
system.cpu.fetch2.load_instructions          43408299                       # Number of memory load instructions successfully decoded
system.cpu.fetch2.store_instructions         11002270                       # Number of memory store instructions successfully decoded
system.cpu.fetch2.vec_instructions                  0                       # Number of SIMD instructions successfully decoded
system.cpu.idleCycles                        32479027                       # Total number of cycles that the object has spent stopped
system.cpu.ipc                               0.606213                       # IPC: instructions per cycle
system.cpu.itb.accesses                             0                       # DTB accesses
system.cpu.itb.align_faults                         0                       # Number of TLB faults due to alignment restrictions
system.cpu.itb.domain_faults                        0                       # Number of TLB faults due to domain restrictions
system.cpu.itb.flush_entries                        0                       # Number of entries that have been flushed from TLB
system.cpu.itb.flush_tlb                            0                       # Number of times complete TLB was flushed
system.cpu.itb.flush_tlb_asid                       0                       # Number of times TLB was flushed by ASID
system.cpu.itb.flush_tlb_mva                        0                       # Number of times TLB was flushed by MVA
system.cpu.itb.flush_tlb_mva_asid                   0                       # Number of times TLB was flushed by MVA & ASID
system.cpu.itb.hits                                 0                       # DTB hits
system.cpu.itb.inst_accesses                        0                       # ITB inst accesses
system.cpu.itb.inst_hits                            0                       # ITB inst hits
system.cpu.itb.inst_misses                          0                       # ITB inst misses
system.cpu.itb.misses                               0                       # DTB misses
system.cpu.itb.perms_faults                         0                       # Number of TLB faults due to permissions restrictions
system.cpu.itb.prefetch_faults                      0                       # Number of TLB faults due to prefetch
system.cpu.itb.read_accesses                        0                       # DTB read accesses
system.cpu.itb.read_hits                            0                       # DTB read hits
system.cpu.itb.read_misses                          0                       # DTB read misses
system.cpu.itb.stage2_mmu.stage2_tlb.accesses            0                       # DTB accesses
system.cpu.itb.stage2_mmu.stage2_tlb.align_faults            0                       # Number of TLB faults due to alignment restrictions
system.cpu.itb.stage2_mmu.stage2_tlb.domain_faults            0                       # Number of TLB faults due to domain restrictions
system.cpu.itb.stage2_mmu.stage2_tlb.flush_entries            0                       # Number of entries that have been flushed from TLB
system.cpu.itb.stage2_mmu.stage2_tlb.flush_tlb            0                       # Number of times complete TLB was flushed
system.cpu.itb.stage2_mmu.stage2_tlb.flush_tlb_asid            0                       # Number of times TLB was flushed by ASID
system.cpu.itb.stage2_mmu.stage2_tlb.flush_tlb_mva            0                       # Number of times TLB was flushed by MVA
system.cpu.itb.stage2_mmu.stage2_tlb.flush_tlb_mva_asid            0                       # Number of times TLB was flushed by MVA & ASID
system.cpu.itb.stage2_mmu.stage2_tlb.hits            0                       # DTB hits
system.cpu.itb.stage2_mmu.stage2_tlb.inst_accesses            0                       # ITB inst accesses
system.cpu.itb.stage2_mmu.stage2_tlb.inst_hits            0                       # ITB inst hits
system.cpu.itb.stage2_mmu.stage2_tlb.inst_misses            0                       # ITB inst misses
system.cpu.itb.stage2_mmu.stage2_tlb.misses            0                       # DTB misses
system.cpu.itb.stage2_mmu.stage2_tlb.perms_faults            0                       # Number of TLB faults due to permissions restrictions
system.cpu.itb.stage2_mmu.stage2_tlb.prefetch_faults            0                       # Number of TLB faults due to prefetch
system.cpu.itb.stage2_mmu.stage2_tlb.read_accesses            0                       # DTB read accesses
system.cpu.itb.stage2_mmu.stage2_tlb.read_hits            0                       # DTB read hits
system.cpu.itb.stage2_mmu.stage2_tlb.read_misses            0                       # DTB read misses
system.cpu.itb.stage2_mmu.stage2_tlb.walker.walkRequestOrigin_Requested::Data            0                       # Table walker requests started/completed, data/inst
system.cpu.itb.stage2_mmu.stage2_tlb.walker.walkRequestOrigin_Requested::Inst            0                       # Table walker requests started/completed, data/inst
system.cpu.itb.stage2_mmu.stage2_tlb.walker.walkRequestOrigin_Requested::total            0                       # Table walker requests started/completed, data/inst
system.cpu.itb.stage2_mmu.stage2_tlb.walker.walkRequestOrigin_Completed::Data            0                       # Table walker requests started/completed, data/inst
system.cpu.itb.stage2_mmu.stage2_tlb.walker.walkRequestOrigin_Completed::Inst            0                       # Table walker requests started/completed, data/inst
system.cpu.itb.stage2_mmu.stage2_tlb.walker.walkRequestOrigin_Completed::total            0                       # Table walker requests started/completed, data/inst
system.cpu.itb.stage2_mmu.stage2_tlb.walker.walkRequestOrigin::total            0                       # Table walker requests started/completed, data/inst
system.cpu.itb.stage2_mmu.stage2_tlb.walker.walks            0                       # Table walker walks requested
system.cpu.itb.stage2_mmu.stage2_tlb.write_accesses            0                       # DTB write accesses
system.cpu.itb.stage2_mmu.stage2_tlb.write_hits            0                       # DTB write hits
system.cpu.itb.stage2_mmu.stage2_tlb.write_misses            0                       # DTB write misses
system.cpu.itb.walker.walkRequestOrigin_Requested::Data            0                       # Table walker requests started/completed, data/inst
system.cpu.itb.walker.walkRequestOrigin_Requested::Inst            0                       # Table walker requests started/completed, data/inst
system.cpu.itb.walker.walkRequestOrigin_Requested::total            0                       # Table walker requests started/completed, data/inst
system.cpu.itb.walker.walkRequestOrigin_Completed::Data            0                       # Table walker requests started/completed, data/inst
system.cpu.itb.walker.walkRequestOrigin_Completed::Inst            0                       # Table walker requests started/completed, data/inst
system.cpu.itb.walker.walkRequestOrigin_Completed::total            0                       # Table walker requests started/completed, data/inst
system.cpu.itb.walker.walkRequestOrigin::total            0                       # Table walker requests started/completed, data/inst
system.cpu.itb.walker.walks                         0                       # Table walker walks requested
system.cpu.itb.write_accesses                       0                       # DTB write accesses
system.cpu.itb.write_hits                           0                       # DTB write hits
system.cpu.itb.write_misses                         0                       # DTB write misses
system.cpu.numCycles                        164958522                       # number of cpu cycles simulated
system.cpu.numFetchSuspends                         0                       # Number of times Execute suspended instruction fetching
system.cpu.numWorkItemsCompleted                    0                       # number of work items this cpu completed
system.cpu.numWorkItemsStarted                      0                       # number of work items this cpu started
system.cpu.op_class_0::No_OpClass                   0      0.00%      0.00% # Class of committed instruction
system.cpu.op_class_0::IntAlu                46531400     46.44%     46.44% # Class of committed instruction
system.cpu.op_class_0::IntMult                  20720      0.02%     46.46% # Class of committed instruction
system.cpu.op_class_0::IntDiv                       0      0.00%     46.46% # Class of committed instruction
system.cpu.op_class_0::FloatAdd                     0      0.00%     46.46% # Class of committed instruction
system.cpu.op_class_0::FloatCmp                     0      0.00%     46.46% # Class of committed instruction
system.cpu.op_class_0::FloatCvt                     0      0.00%     46.46% # Class of committed instruction
system.cpu.op_class_0::FloatMult                    0      0.00%     46.46% # Class of committed instruction
system.cpu.op_class_0::FloatMultAcc                 0      0.00%     46.46% # Class of committed instruction
system.cpu.op_class_0::FloatDiv                     0      0.00%     46.46% # Class of committed instruction
system.cpu.op_class_0::FloatMisc                    0      0.00%     46.46% # Class of committed instruction
system.cpu.op_class_0::FloatSqrt                    0      0.00%     46.46% # Class of committed instruction
system.cpu.op_class_0::SimdAdd                      0      0.00%     46.46% # Class of committed instruction
system.cpu.op_class_0::SimdAddAcc                   0      0.00%     46.46% # Class of committed instruction
system.cpu.op_class_0::SimdAlu                      0      0.00%     46.46% # Class of committed instruction
system.cpu.op_class_0::SimdCmp                      0      0.00%     46.46% # Class of committed instruction
system.cpu.op_class_0::SimdCvt                      0      0.00%     46.46% # Class of committed instruction
system.cpu.op_class_0::SimdMisc                     0      0.00%     46.46% # Class of committed instruction
system.cpu.op_class_0::SimdMult                     0      0.00%     46.46% # Class of committed instruction
system.cpu.op_class_0::SimdMultAcc                  0      0.00%     46.46% # Class of committed instruction
system.cpu.op_class_0::SimdShift                    0      0.00%     46.46% # Class of committed instruction
system.cpu.op_class_0::SimdShiftAcc                 0      0.00%     46.46% # Class of committed instruction
system.cpu.op_class_0::SimdDiv                      0      0.00%     46.46% # Class of committed instruction
system.cpu.op_class_0::SimdSqrt                     0      0.00%     46.46% # Class of committed instruction
system.cpu.op_class_0::SimdFloatAdd                 0      0.00%     46.46% # Class of committed instruction
system.cpu.op_class_0::SimdFloatAlu                 0      0.00%     46.46% # Class of committed instruction
system.cpu.op_class_0::SimdFloatCmp                 0      0.00%     46.46% # Class of committed instruction
system.cpu.op_class_0::SimdFloatCvt                 0      0.00%     46.46% # Class of committed instruction
system.cpu.op_class_0::SimdFloatDiv                 0      0.00%     46.46% # Class of committed instruction
system.cpu.op_class_0::SimdFloatMisc               18      0.00%     46.46% # Class of committed instruction
system.cpu.op_class_0::SimdFloatMult                0      0.00%     46.46% # Class of committed instruction
system.cpu.op_class_0::SimdFloatMultAcc             0      0.00%     46.46% # Class of committed instruction
system.cpu.op_class_0::SimdFloatSqrt                0      0.00%     46.46% # Class of committed instruction
system.cpu.op_class_0::SimdReduceAdd                0      0.00%     46.46% # Class of committed instruction
system.cpu.op_class_0::SimdReduceAlu                0      0.00%     46.46% # Class of committed instruction
system.cpu.op_class_0::SimdReduceCmp                0      0.00%     46.46% # Class of committed instruction
system.cpu.op_class_0::SimdFloatReduceAdd            0      0.00%     46.46% # Class of committed instruction
system.cpu.op_class_0::SimdFloatReduceCmp            0      0.00%     46.46% # Class of committed instruction
system.cpu.op_class_0::SimdAes                      0      0.00%     46.46% # Class of committed instruction
system.cpu.op_class_0::SimdAesMix                   0      0.00%     46.46% # Class of committed instruction
system.cpu.op_class_0::SimdSha1Hash                 0      0.00%     46.46% # Class of committed instruction
system.cpu.op_class_0::SimdSha1Hash2                0      0.00%     46.46% # Class of committed instruction
system.cpu.op_class_0::SimdSha256Hash               0      0.00%     46.46% # Class of committed instruction
system.cpu.op_class_0::SimdSha256Hash2              0      0.00%     46.46% # Class of committed instruction
system.cpu.op_class_0::SimdShaSigma2                0      0.00%     46.46% # Class of committed instruction
system.cpu.op_class_0::SimdShaSigma3                0      0.00%     46.46% # Class of committed instruction
system.cpu.op_class_0::SimdPredAlu                  0      0.00%     46.46% # Class of committed instruction
system.cpu.op_class_0::MemRead               42693601     42.61%     89.07% # Class of committed instruction
system.cpu.op_class_0::MemWrite              10950624     10.93%    100.00% # Class of committed instruction
system.cpu.op_class_0::FloatMemRead                 0      0.00%    100.00% # Class of committed instruction
system.cpu.op_class_0::FloatMemWrite                0      0.00%    100.00% # Class of committed instruction
system.cpu.op_class_0::IprAccess                    0      0.00%    100.00% # Class of committed instruction
system.cpu.op_class_0::InstPrefetch                 0      0.00%    100.00% # Class of committed instruction
system.cpu.op_class_0::total                100196363                       # Class of committed instruction
system.cpu.tickCycles                       132479495                       # Number of cycles that the object actually ticked
system.cpu.workload.numSyscalls                    84                       # Number of system calls
system.membus.snoop_filter.hit_multi_requests            0                       # Number of requests hitting in the snoop filter with multiple (>1) holders of the requested data.
system.membus.snoop_filter.hit_multi_snoops            0                       # Number of snoops hitting in the snoop filter with multiple (>1) holders of the requested data.
system.membus.snoop_filter.hit_single_requests        57908                       # Number of requests hitting in the snoop filter with a single holder of the requested data.
system.membus.snoop_filter.hit_single_snoops            0                       # Number of snoops hitting in the snoop filter with a single holder of the requested data.
system.membus.snoop_filter.tot_requests        132272                       # Total number of requests made to the snoop filter.
system.membus.snoop_filter.tot_snoops               0                       # Total number of snoops made to the snoop filter.
system.tol2bus.snoop_filter.hit_multi_requests          304                       # Number of requests hitting in the snoop filter with multiple (>1) holders of the requested data.
system.tol2bus.snoop_filter.hit_multi_snoops            1                       # Number of snoops hitting in the snoop filter with multiple (>1) holders of the requested data.
system.tol2bus.snoop_filter.hit_single_requests       769669                       # Number of requests hitting in the snoop filter with a single holder of the requested data.
system.tol2bus.snoop_filter.hit_single_snoops          169                       # Number of snoops hitting in the snoop filter with a single holder of the requested data.
system.tol2bus.snoop_filter.tot_requests      1539710                       # Total number of requests made to the snoop filter.
system.tol2bus.snoop_filter.tot_snoops            170                       # Total number of snoops made to the snoop filter.
system.membus.pwrStateResidencyTicks::UNDEFINED  82479261000                       # Cumulative time (in ticks) in various power states
system.membus.trans_dist::ReadResp              19385                       # Transaction distribution
system.membus.trans_dist::WritebackDirty        40231                       # Transaction distribution
system.membus.trans_dist::CleanEvict            17668                       # Transaction distribution
system.membus.trans_dist::ReadExReq             54988                       # Transaction distribution
system.membus.trans_dist::ReadExResp            54988                       # Transaction distribution
system.membus.trans_dist::ReadSharedReq         19385                       # Transaction distribution
system.membus.pkt_count_system.l2.mem_side::system.mem_ctrls.port       206645                       # Packet count per connected master and slave (bytes)
system.membus.pkt_count::total                 206645                       # Packet count per connected master and slave (bytes)
system.membus.pkt_size_system.l2.mem_side::system.mem_ctrls.port     29338624                       # Cumulative packet size per connected master and slave (bytes)
system.membus.pkt_size::total                29338624                       # Cumulative packet size per connected master and slave (bytes)
system.membus.snoops                                0                       # Total snoops (count)
system.membus.snoopTraffic                          0                       # Total snoop traffic (bytes)
system.membus.snoop_fanout::samples             74373                       # Request fanout histogram
system.membus.snoop_fanout::mean                    0                       # Request fanout histogram
system.membus.snoop_fanout::stdev                   0                       # Request fanout histogram
system.membus.snoop_fanout::underflows              0      0.00%      0.00% # Request fanout histogram
system.membus.snoop_fanout::0                   74373    100.00%    100.00% # Request fanout histogram
system.membus.snoop_fanout::1                       0      0.00%    100.00% # Request fanout histogram
system.membus.snoop_fanout::overflows               0      0.00%    100.00% # Request fanout histogram
system.membus.snoop_fanout::min_value               0                       # Request fanout histogram
system.membus.snoop_fanout::max_value               0                       # Request fanout histogram
system.membus.snoop_fanout::total               74373                       # Request fanout histogram
system.membus.respLayer1.occupancy         1292318250                       # Layer occupancy (ticks)
system.membus.respLayer1.utilization              1.6                       # Layer utilization (%)
system.membus.reqLayer0.occupancy           797733500                       # Layer occupancy (ticks)
system.membus.reqLayer0.utilization               1.0                       # Layer utilization (%)
system.tol2bus.pwrStateResidencyTicks::UNDEFINED  82479261000                       # Cumulative time (in ticks) in various power states
system.tol2bus.trans_dist::ReadResp            443448                       # Transaction distribution
system.tol2bus.trans_dist::WritebackDirty       787571                       # Transaction distribution
system.tol2bus.trans_dist::WritebackClean          458                       # Transaction distribution
system.tol2bus.trans_dist::CleanEvict           39709                       # Transaction distribution
system.tol2bus.trans_dist::ReadExReq           326593                       # Transaction distribution
system.tol2bus.trans_dist::ReadExResp          326592                       # Transaction distribution
system.tol2bus.trans_dist::ReadCleanReq           573                       # Transaction distribution
system.tol2bus.trans_dist::ReadSharedReq       442875                       # Transaction distribution
system.tol2bus.pkt_count_system.cpu.icache.mem_side::system.l2.cpu_side         1604                       # Packet count per connected master and slave (bytes)
system.tol2bus.pkt_count_system.cpu.dcache.mem_side::system.l2.cpu_side      2308146                       # Packet count per connected master and slave (bytes)
system.tol2bus.pkt_count::total               2309750                       # Packet count per connected master and slave (bytes)
system.tol2bus.pkt_size_system.cpu.icache.mem_side::system.l2.cpu_side       263936                       # Cumulative packet size per connected master and slave (bytes)
system.tol2bus.pkt_size_system.cpu.dcache.mem_side::system.l2.cpu_side    388302592                       # Cumulative packet size per connected master and slave (bytes)
system.tol2bus.pkt_size::total              388566528                       # Cumulative packet size per connected master and slave (bytes)
system.tol2bus.snoops                           58069                       # Total snoops (count)
system.tol2bus.snoopTraffic                  10299136                       # Total snoop traffic (bytes)
system.tol2bus.snoop_fanout::samples           828110                       # Request fanout histogram
system.tol2bus.snoop_fanout::mean            0.000574                       # Request fanout histogram
system.tol2bus.snoop_fanout::stdev           0.023993                       # Request fanout histogram
system.tol2bus.snoop_fanout::underflows             0      0.00%      0.00% # Request fanout histogram
system.tol2bus.snoop_fanout::0                 827636     99.94%     99.94% # Request fanout histogram
system.tol2bus.snoop_fanout::1                    473      0.06%    100.00% # Request fanout histogram
system.tol2bus.snoop_fanout::2                      1      0.00%    100.00% # Request fanout histogram
system.tol2bus.snoop_fanout::overflows              0      0.00%    100.00% # Request fanout histogram
system.tol2bus.snoop_fanout::min_value              0                       # Request fanout histogram
system.tol2bus.snoop_fanout::max_value              2                       # Request fanout histogram
system.tol2bus.snoop_fanout::total             828110                       # Request fanout histogram
system.tol2bus.reqLayer0.occupancy         3761047000                       # Layer occupancy (ticks)
system.tol2bus.reqLayer0.utilization              4.6                       # Layer utilization (%)
system.tol2bus.respLayer1.occupancy        3462604494                       # Layer occupancy (ticks)
system.tol2bus.respLayer1.utilization             4.2                       # Layer utilization (%)
system.tol2bus.respLayer0.occupancy           2578500                       # Layer occupancy (ticks)
system.tol2bus.respLayer0.utilization             0.0                       # Layer utilization (%)
system.voltage_domain.voltage                       1                       # Voltage in Volts
system.clk_domain.clock                          1000                       # Clock period in ticks
system.l2.pwrStateResidencyTicks::UNDEFINED  82479261000                       # Cumulative time (in ticks) in various power states
system.l2.demand_hits::.cpu.inst                  270                       # number of demand (read+write) hits
system.l2.demand_hits::.cpu.data               695392                       # number of demand (read+write) hits
system.l2.demand_hits::total                   695662                       # number of demand (read+write) hits
system.l2.overall_hits::.cpu.inst                 270                       # number of overall hits
system.l2.overall_hits::.cpu.data              695392                       # number of overall hits
system.l2.overall_hits::total                  695662                       # number of overall hits
system.l2.demand_misses::.cpu.inst                303                       # number of demand (read+write) misses
system.l2.demand_misses::.cpu.data              74076                       # number of demand (read+write) misses
system.l2.demand_misses::total                  74379                       # number of demand (read+write) misses
system.l2.overall_misses::.cpu.inst               303                       # number of overall misses
system.l2.overall_misses::.cpu.data             74076                       # number of overall misses
system.l2.overall_misses::total                 74379                       # number of overall misses
system.l2.demand_miss_latency::.cpu.inst     30612000                       # number of demand (read+write) miss cycles
system.l2.demand_miss_latency::.cpu.data   8865414000                       # number of demand (read+write) miss cycles
system.l2.demand_miss_latency::total       8896026000                       # number of demand (read+write) miss cycles
system.l2.overall_miss_latency::.cpu.inst     30612000                       # number of overall miss cycles
system.l2.overall_miss_latency::.cpu.data   8865414000                       # number of overall miss cycles
system.l2.overall_miss_latency::total      8896026000                       # number of overall miss cycles
system.l2.demand_accesses::.cpu.inst              573                       # number of demand (read+write) accesses
system.l2.demand_accesses::.cpu.data           769468                       # number of demand (read+write) accesses
system.l2.demand_accesses::total               770041                       # number of demand (read+write) accesses
system.l2.overall_accesses::.cpu.inst             573                       # number of overall (read+write) accesses
system.l2.overall_accesses::.cpu.data          769468                       # number of overall (read+write) accesses
system.l2.overall_accesses::total              770041                       # number of overall (read+write) accesses
system.l2.demand_miss_rate::.cpu.inst        0.528796                       # miss rate for demand accesses
system.l2.demand_miss_rate::.cpu.data        0.096269                       # miss rate for demand accesses
system.l2.demand_miss_rate::total            0.096591                       # miss rate for demand accesses
system.l2.overall_miss_rate::.cpu.inst       0.528796                       # miss rate for overall accesses
system.l2.overall_miss_rate::.cpu.data       0.096269                       # miss rate for overall accesses
system.l2.overall_miss_rate::total           0.096591                       # miss rate for overall accesses
system.l2.demand_avg_miss_latency::.cpu.inst 101029.702970                       # average overall miss latency
system.l2.demand_avg_miss_latency::.cpu.data 119679.977321                       # average overall miss latency
system.l2.demand_avg_miss_latency::total 119604.001129                       # average overall miss latency
system.l2.overall_avg_miss_latency::.cpu.inst 101029.702970                       # average overall miss latency
system.l2.overall_avg_miss_latency::.cpu.data 119679.977321                       # average overall miss latency
system.l2.overall_avg_miss_latency::total 119604.001129                       # average overall miss latency
system.l2.blocked_cycles::no_mshrs                  0                       # number of cycles access was blocked
system.l2.blocked_cycles::no_targets                0                       # number of cycles access was blocked
system.l2.blocked::no_mshrs                         0                       # number of cycles access was blocked
system.l2.blocked::no_targets                       0                       # number of cycles access was blocked
system.l2.avg_blocked_cycles::no_mshrs            nan                       # average number of cycles each access was blocked
system.l2.avg_blocked_cycles::no_targets          nan                       # average number of cycles each access was blocked
system.l2.writebacks::.writebacks               40231                       # number of writebacks
system.l2.writebacks::total                     40231                       # number of writebacks
system.l2.demand_mshr_hits::.cpu.data               6                       # number of demand (read+write) MSHR hits
system.l2.demand_mshr_hits::total                   6                       # number of demand (read+write) MSHR hits
system.l2.overall_mshr_hits::.cpu.data              6                       # number of overall MSHR hits
system.l2.overall_mshr_hits::total                  6                       # number of overall MSHR hits
system.l2.demand_mshr_misses::.cpu.inst           303                       # number of demand (read+write) MSHR misses
system.l2.demand_mshr_misses::.cpu.data         74070                       # number of demand (read+write) MSHR misses
system.l2.demand_mshr_misses::total             74373                       # number of demand (read+write) MSHR misses
system.l2.overall_mshr_misses::.cpu.inst          303                       # number of overall MSHR misses
system.l2.overall_mshr_misses::.cpu.data        74070                       # number of overall MSHR misses
system.l2.overall_mshr_misses::total            74373                       # number of overall MSHR misses
system.l2.demand_mshr_miss_latency::.cpu.inst     27582000                       # number of demand (read+write) MSHR miss cycles
system.l2.demand_mshr_miss_latency::.cpu.data   8124181500                       # number of demand (read+write) MSHR miss cycles
system.l2.demand_mshr_miss_latency::total   8151763500                       # number of demand (read+write) MSHR miss cycles
system.l2.overall_mshr_miss_latency::.cpu.inst     27582000                       # number of overall MSHR miss cycles
system.l2.overall_mshr_miss_latency::.cpu.data   8124181500                       # number of overall MSHR miss cycles
system.l2.overall_mshr_miss_latency::total   8151763500                       # number of overall MSHR miss cycles
system.l2.demand_mshr_miss_rate::.cpu.inst     0.528796                       # mshr miss rate for demand accesses
system.l2.demand_mshr_miss_rate::.cpu.data     0.096261                       # mshr miss rate for demand accesses
system.l2.demand_mshr_miss_rate::total       0.096583                       # mshr miss rate for demand accesses
system.l2.overall_mshr_miss_rate::.cpu.inst     0.528796                       # mshr miss rate for overall accesses
system.l2.overall_mshr_miss_rate::.cpu.data     0.096261                       # mshr miss rate for overall accesses
system.l2.overall_mshr_miss_rate::total      0.096583                       # mshr miss rate for overall accesses
system.l2.demand_avg_mshr_miss_latency::.cpu.inst 91029.702970                       # average overall mshr miss latency
system.l2.demand_avg_mshr_miss_latency::.cpu.data 109682.482787                       # average overall mshr miss latency
system.l2.demand_avg_mshr_miss_latency::total 109606.490259                       # average overall mshr miss latency
system.l2.overall_avg_mshr_miss_latency::.cpu.inst 91029.702970                       # average overall mshr miss latency
system.l2.overall_avg_mshr_miss_latency::.cpu.data 109682.482787                       # average overall mshr miss latency
system.l2.overall_avg_mshr_miss_latency::total 109606.490259                       # average overall mshr miss latency
system.l2.replacements                          58069                       # number of replacements
system.l2.WritebackDirty_hits::.writebacks       747340                       # number of WritebackDirty hits
system.l2.WritebackDirty_hits::total           747340                       # number of WritebackDirty hits
system.l2.WritebackDirty_accesses::.writebacks       747340                       # number of WritebackDirty accesses(hits+misses)
system.l2.WritebackDirty_accesses::total       747340                       # number of WritebackDirty accesses(hits+misses)
system.l2.WritebackClean_hits::.writebacks          427                       # number of WritebackClean hits
system.l2.WritebackClean_hits::total              427                       # number of WritebackClean hits
system.l2.WritebackClean_accesses::.writebacks          427                       # number of WritebackClean accesses(hits+misses)
system.l2.WritebackClean_accesses::total          427                       # number of WritebackClean accesses(hits+misses)
system.l2.ReadExReq_hits::.cpu.data            271605                       # number of ReadExReq hits
system.l2.ReadExReq_hits::total                271605                       # number of ReadExReq hits
system.l2.ReadExReq_misses::.cpu.data           54988                       # number of ReadExReq misses
system.l2.ReadExReq_misses::total               54988                       # number of ReadExReq misses
system.l2.ReadExReq_miss_latency::.cpu.data   6953428500                       # number of ReadExReq miss cycles
system.l2.ReadExReq_miss_latency::total    6953428500                       # number of ReadExReq miss cycles
system.l2.ReadExReq_accesses::.cpu.data        326593                       # number of ReadExReq accesses(hits+misses)
system.l2.ReadExReq_accesses::total            326593                       # number of ReadExReq accesses(hits+misses)
system.l2.ReadExReq_miss_rate::.cpu.data     0.168369                       # miss rate for ReadExReq accesses
system.l2.ReadExReq_miss_rate::total         0.168369                       # miss rate for ReadExReq accesses
system.l2.ReadExReq_avg_miss_latency::.cpu.data 126453.562595                       # average ReadExReq miss latency
system.l2.ReadExReq_avg_miss_latency::total 126453.562595                       # average ReadExReq miss latency
system.l2.ReadExReq_mshr_misses::.cpu.data        54988                       # number of ReadExReq MSHR misses
system.l2.ReadExReq_mshr_misses::total          54988                       # number of ReadExReq MSHR misses
system.l2.ReadExReq_mshr_miss_latency::.cpu.data   6403548500                       # number of ReadExReq MSHR miss cycles
system.l2.ReadExReq_mshr_miss_latency::total   6403548500                       # number of ReadExReq MSHR miss cycles
system.l2.ReadExReq_mshr_miss_rate::.cpu.data     0.168369                       # mshr miss rate for ReadExReq accesses
system.l2.ReadExReq_mshr_miss_rate::total     0.168369                       # mshr miss rate for ReadExReq accesses
system.l2.ReadExReq_avg_mshr_miss_latency::.cpu.data 116453.562595                       # average ReadExReq mshr miss latency
system.l2.ReadExReq_avg_mshr_miss_latency::total 116453.562595                       # average ReadExReq mshr miss latency
system.l2.ReadCleanReq_hits::.cpu.inst            270                       # number of ReadCleanReq hits
system.l2.ReadCleanReq_hits::total                270                       # number of ReadCleanReq hits
system.l2.ReadCleanReq_misses::.cpu.inst          303                       # number of ReadCleanReq misses
system.l2.ReadCleanReq_misses::total              303                       # number of ReadCleanReq misses
system.l2.ReadCleanReq_miss_latency::.cpu.inst     30612000                       # number of ReadCleanReq miss cycles
system.l2.ReadCleanReq_miss_latency::total     30612000                       # number of ReadCleanReq miss cycles
system.l2.ReadCleanReq_accesses::.cpu.inst          573                       # number of ReadCleanReq accesses(hits+misses)
system.l2.ReadCleanReq_accesses::total            573                       # number of ReadCleanReq accesses(hits+misses)
system.l2.ReadCleanReq_miss_rate::.cpu.inst     0.528796                       # miss rate for ReadCleanReq accesses
system.l2.ReadCleanReq_miss_rate::total      0.528796                       # miss rate for ReadCleanReq accesses
system.l2.ReadCleanReq_avg_miss_latency::.cpu.inst 101029.702970                       # average ReadCleanReq miss latency
system.l2.ReadCleanReq_avg_miss_latency::total 101029.702970                       # average ReadCleanReq miss latency
system.l2.ReadCleanReq_mshr_misses::.cpu.inst          303                       # number of ReadCleanReq MSHR misses
system.l2.ReadCleanReq_mshr_misses::total          303                       # number of ReadCleanReq MSHR misses
system.l2.ReadCleanReq_mshr_miss_latency::.cpu.inst     27582000                       # number of ReadCleanReq MSHR miss cycles
system.l2.ReadCleanReq_mshr_miss_latency::total     27582000                       # number of ReadCleanReq MSHR miss cycles
system.l2.ReadCleanReq_mshr_miss_rate::.cpu.inst     0.528796                       # mshr miss rate for ReadCleanReq accesses
system.l2.ReadCleanReq_mshr_miss_rate::total     0.528796                       # mshr miss rate for ReadCleanReq accesses
system.l2.ReadCleanReq_avg_mshr_miss_latency::.cpu.inst 91029.702970                       # average ReadCleanReq mshr miss latency
system.l2.ReadCleanReq_avg_mshr_miss_latency::total 91029.702970                       # average ReadCleanReq mshr miss latency
system.l2.ReadSharedReq_hits::.cpu.data        423787                       # number of ReadSharedReq hits
system.l2.ReadSharedReq_hits::total            423787                       # number of ReadSharedReq hits
system.l2.ReadSharedReq_misses::.cpu.data        19088                       # number of ReadSharedReq misses
system.l2.ReadSharedReq_misses::total           19088                       # number of ReadSharedReq misses
system.l2.ReadSharedReq_miss_latency::.cpu.data   1911985500                       # number of ReadSharedReq miss cycles
system.l2.ReadSharedReq_miss_latency::total   1911985500                       # number of ReadSharedReq miss cycles
system.l2.ReadSharedReq_accesses::.cpu.data       442875                       # number of ReadSharedReq accesses(hits+misses)
system.l2.ReadSharedReq_accesses::total        442875                       # number of ReadSharedReq accesses(hits+misses)
system.l2.ReadSharedReq_miss_rate::.cpu.data     0.043100                       # miss rate for ReadSharedReq accesses
system.l2.ReadSharedReq_miss_rate::total     0.043100                       # miss rate for ReadSharedReq accesses
system.l2.ReadSharedReq_avg_miss_latency::.cpu.data 100166.884954                       # average ReadSharedReq miss latency
system.l2.ReadSharedReq_avg_miss_latency::total 100166.884954                       # average ReadSharedReq miss latency
system.l2.ReadSharedReq_mshr_hits::.cpu.data            6                       # number of ReadSharedReq MSHR hits
system.l2.ReadSharedReq_mshr_hits::total            6                       # number of ReadSharedReq MSHR hits
system.l2.ReadSharedReq_mshr_misses::.cpu.data        19082                       # number of ReadSharedReq MSHR misses
system.l2.ReadSharedReq_mshr_misses::total        19082                       # number of ReadSharedReq MSHR misses
system.l2.ReadSharedReq_mshr_miss_latency::.cpu.data   1720633000                       # number of ReadSharedReq MSHR miss cycles
system.l2.ReadSharedReq_mshr_miss_latency::total   1720633000                       # number of ReadSharedReq MSHR miss cycles
system.l2.ReadSharedReq_mshr_miss_rate::.cpu.data     0.043087                       # mshr miss rate for ReadSharedReq accesses
system.l2.ReadSharedReq_mshr_miss_rate::total     0.043087                       # mshr miss rate for ReadSharedReq accesses
system.l2.ReadSharedReq_avg_mshr_miss_latency::.cpu.data 90170.474793                       # average ReadSharedReq mshr miss latency
system.l2.ReadSharedReq_avg_mshr_miss_latency::total 90170.474793                       # average ReadSharedReq mshr miss latency
system.l2.tags.pwrStateResidencyTicks::UNDEFINED  82479261000                       # Cumulative time (in ticks) in various power states
system.l2.tags.tagsinuse                 15853.879376                       # Cycle average of tags in use
system.l2.tags.total_refs                     1539400                       # Total number of references to valid blocks.
system.l2.tags.sampled_refs                     74453                       # Sample count of references to valid blocks.
system.l2.tags.avg_refs                     20.676131                       # Average number of references to valid blocks.
system.l2.tags.warmup_cycle                     92000                       # Cycle when the warmup percentage was hit.
system.l2.tags.occ_blocks::.writebacks      34.504999                       # Average occupied blocks per requestor
system.l2.tags.occ_blocks::.cpu.inst        56.843871                       # Average occupied blocks per requestor
system.l2.tags.occ_blocks::.cpu.data     15762.530506                       # Average occupied blocks per requestor
system.l2.tags.occ_percent::.writebacks      0.002106                       # Average percentage of cache occupancy
system.l2.tags.occ_percent::.cpu.inst        0.003469                       # Average percentage of cache occupancy
system.l2.tags.occ_percent::.cpu.data        0.962069                       # Average percentage of cache occupancy
system.l2.tags.occ_percent::total            0.967644                       # Average percentage of cache occupancy
system.l2.tags.occ_task_id_blocks::1024         16384                       # Occupied blocks per task id
system.l2.tags.age_task_id_blocks_1024::2            3                       # Occupied blocks per task id
system.l2.tags.age_task_id_blocks_1024::3          942                       # Occupied blocks per task id
system.l2.tags.age_task_id_blocks_1024::4        15439                       # Occupied blocks per task id
system.l2.tags.occ_task_id_percent::1024            1                       # Percentage of cache occupancy per task id
system.l2.tags.tag_accesses                  12389701                       # Number of tag accesses
system.l2.tags.data_accesses                 12389701                       # Number of data accesses
system.cpu_voltage_domain.voltage                   1                       # Voltage in Volts
system.mem_ctrls.pwrStateResidencyTicks::UNDEFINED  82479261000                       # Cumulative time (in ticks) in various power states
system.mem_ctrls.bytes_read::.cpu.inst          77568                       # Number of bytes read from this memory
system.mem_ctrls.bytes_read::.cpu.data       18961920                       # Number of bytes read from this memory
system.mem_ctrls.bytes_read::total           19039488                       # Number of bytes read from this memory
system.mem_ctrls.bytes_inst_read::.cpu.inst        77568                       # Number of instructions bytes read from this memory
system.mem_ctrls.bytes_inst_read::total         77568                       # Number of instructions bytes read from this memory
system.mem_ctrls.bytes_written::.writebacks     10299136                       # Number of bytes written to this memory
system.mem_ctrls.bytes_written::total        10299136                       # Number of bytes written to this memory
system.mem_ctrls.num_reads::.cpu.inst             303                       # Number of read requests responded to by this memory
system.mem_ctrls.num_reads::.cpu.data           74070                       # Number of read requests responded to by this memory
system.mem_ctrls.num_reads::total               74373                       # Number of read requests responded to by this memory
system.mem_ctrls.num_writes::.writebacks        40231                       # Number of write requests responded to by this memory
system.mem_ctrls.num_writes::total              40231                       # Number of write requests responded to by this memory
system.mem_ctrls.bw_read::.cpu.inst            940455                       # Total read bandwidth from this memory (bytes/s)
system.mem_ctrls.bw_read::.cpu.data         229899247                       # Total read bandwidth from this memory (bytes/s)
system.mem_ctrls.bw_read::total             230839702                       # Total read bandwidth from this memory (bytes/s)
system.mem_ctrls.bw_inst_read::.cpu.inst       940455                       # Instruction read bandwidth from this memory (bytes/s)
system.mem_ctrls.bw_inst_read::total           940455                       # Instruction read bandwidth from this memory (bytes/s)
system.mem_ctrls.bw_write::.writebacks      124869402                       # Write bandwidth from this memory (bytes/s)
system.mem_ctrls.bw_write::total            124869402                       # Write bandwidth from this memory (bytes/s)
system.mem_ctrls.bw_total::.writebacks      124869402                       # Total bandwidth to/from this memory (bytes/s)
system.mem_ctrls.bw_total::.cpu.inst           940455                       # Total bandwidth to/from this memory (bytes/s)
system.mem_ctrls.bw_total::.cpu.data        229899247                       # Total bandwidth to/from this memory (bytes/s)
system.mem_ctrls.bw_total::total            355709104                       # Total bandwidth to/from this memory (bytes/s)
system.mem_ctrls.avgPriority_.writebacks::samples    160924.00                       # Average QoS priority value for accepted requests
system.mem_ctrls.avgPriority_.cpu.inst::samples      1212.00                       # Average QoS priority value for accepted requests
system.mem_ctrls.avgPriority_.cpu.data::samples    296253.00                       # Average QoS priority value for accepted requests
system.mem_ctrls.priorityMinLatency      0.000000018750                       # per QoS priority minimum request to response latency (s)
system.mem_ctrls.priorityMaxLatency      0.011123796500                       # per QoS priority maximum request to response latency (s)
system.mem_ctrls.numReadWriteTurnArounds         9859                       # Number of turnarounds from READ to WRITE
system.mem_ctrls.numWriteReadTurnArounds         9859                       # Number of turnarounds from WRITE to READ
system.mem_ctrls.numStayReadState              413039                       # Number of times bus staying in READ state
system.mem_ctrls.numStayWriteState             151263                       # Number of times bus staying in WRITE state
system.mem_ctrls.readReqs                       74373                       # Number of read requests accepted
system.mem_ctrls.writeReqs                      40231                       # Number of write requests accepted
system.mem_ctrls.readBursts                    297492                       # Number of DRAM read bursts, including those serviced by the write queue
system.mem_ctrls.writeBursts                   160924                       # Number of DRAM write bursts, including those merged in the write queue
system.mem_ctrls.servicedByWrQ                     27                       # Number of DRAM read bursts serviced by the write queue
system.mem_ctrls.mergedWrBursts                     0                       # Number of DRAM write bursts merged with an existing one
system.mem_ctrls.neitherReadNorWriteReqs            0                       # Number of requests that are neither read nor write
system.mem_ctrls.perBankRdBursts::0             18920                       # Per bank write bursts
system.mem_ctrls.perBankRdBursts::1             18824                       # Per bank write bursts
system.mem_ctrls.perBankRdBursts::2             18768                       # Per bank write bursts
system.mem_ctrls.perBankRdBursts::3             18492                       # Per bank write bursts
system.mem_ctrls.perBankRdBursts::4             18584                       # Per bank write bursts
system.mem_ctrls.perBankRdBursts::5             18556                       # Per bank write bursts
system.mem_ctrls.perBankRdBursts::6             18468                       # Per bank write bursts
system.mem_ctrls.perBankRdBursts::7             18588                       # Per bank write bursts
system.mem_ctrls.perBankRdBursts::8             18496                       # Per bank write bursts
system.mem_ctrls.perBankRdBursts::9             18496                       # Per bank write bursts
system.mem_ctrls.perBankRdBursts::10            18676                       # Per bank write bursts
system.mem_ctrls.perBankRdBursts::11            18644                       # Per bank write bursts
system.mem_ctrls.perBankRdBursts::12            18616                       # Per bank write bursts
system.mem_ctrls.perBankRdBursts::13            18361                       # Per bank write bursts
system.mem_ctrls.perBankRdBursts::14            18372                       # Per bank write bursts
system.mem_ctrls.perBankRdBursts::15            18604                       # Per bank write bursts
system.mem_ctrls.perBankWrBursts::0             10112                       # Per bank write bursts
system.mem_ctrls.perBankWrBursts::1             10128                       # Per bank write bursts
system.mem_ctrls.perBankWrBursts::2             10184                       # Per bank write bursts
system.mem_ctrls.perBankWrBursts::3             10160                       # Per bank write bursts
system.mem_ctrls.perBankWrBursts::4             10104                       # Per bank write bursts
system.mem_ctrls.perBankWrBursts::5             10076                       # Per bank write bursts
system.mem_ctrls.perBankWrBursts::6             10052                       # Per bank write bursts
system.mem_ctrls.perBankWrBursts::7             10116                       # Per bank write bursts
system.mem_ctrls.perBankWrBursts::8             10028                       # Per bank write bursts
system.mem_ctrls.perBankWrBursts::9              9984                       # Per bank write bursts
system.mem_ctrls.perBankWrBursts::10             9984                       # Per bank write bursts
system.mem_ctrls.perBankWrBursts::11             9984                       # Per bank write bursts
system.mem_ctrls.perBankWrBursts::12             9972                       # Per bank write bursts
system.mem_ctrls.perBankWrBursts::13            10001                       # Per bank write bursts
system.mem_ctrls.perBankWrBursts::14             9992                       # Per bank write bursts
system.mem_ctrls.perBankWrBursts::15            10032                       # Per bank write bursts
system.mem_ctrls.avgRdQLen                       4.02                       # Average read queue length when enqueuing
system.mem_ctrls.avgWrQLen                      27.55                       # Average write queue length when enqueuing
system.mem_ctrls.totQLat                  11892470250                       # Total ticks spent queuing
system.mem_ctrls.totBusLat                 1487325000                       # Total ticks spent in databus transfers
system.mem_ctrls.totMemAccLat             17469939000                       # Total ticks spent from burst creation until serviced by the DRAM
system.mem_ctrls.avgQLat                     39979.39                       # Average queueing delay per DRAM burst
system.mem_ctrls.avgBusLat                    5000.00                       # Average bus latency per DRAM burst
system.mem_ctrls.avgMemAccLat                58729.39                       # Average memory access latency per DRAM burst
system.mem_ctrls.numRdRetry                         0                       # Number of times read queue was full causing retry
system.mem_ctrls.numWrRetry                         0                       # Number of times write queue was full causing retry
system.mem_ctrls.readRowHits                   267345                       # Number of row buffer hits during reads
system.mem_ctrls.writeRowHits                  144727                       # Number of row buffer hits during writes
system.mem_ctrls.readRowHitRate                 89.87                       # Row buffer hit rate for reads
system.mem_ctrls.writeRowHitRate                89.94                       # Row buffer hit rate for writes
system.mem_ctrls.readPktSize::0                     0                       # Read request sizes (log2)
system.mem_ctrls.readPktSize::1                     0                       # Read request sizes (log2)
system.mem_ctrls.readPktSize::2                     0                       # Read request sizes (log2)
system.mem_ctrls.readPktSize::3                     0                       # Read request sizes (log2)
system.mem_ctrls.readPktSize::4                     0                       # Read request sizes (log2)
system.mem_ctrls.readPktSize::5                     0                       # Read request sizes (log2)
system.mem_ctrls.readPktSize::6                297492                       # Read request sizes (log2)
system.mem_ctrls.writePktSize::0                    0                       # Write request sizes (log2)
system.mem_ctrls.writePktSize::1                    0                       # Write request sizes (log2)
system.mem_ctrls.writePktSize::2                    0                       # Write request sizes (log2)
system.mem_ctrls.writePktSize::3                    0                       # Write request sizes (log2)
system.mem_ctrls.writePktSize::4                    0                       # Write request sizes (log2)
system.mem_ctrls.writePktSize::5                    0                       # Write request sizes (log2)
system.mem_ctrls.writePktSize::6               160924                       # Write request sizes (log2)
system.mem_ctrls.rdQLenPdf::0                   58463                       # What read queue length does an incoming req see
system.mem_ctrls.rdQLenPdf::1                   58533                       # What read queue length does an incoming req see
system.mem_ctrls.rdQLenPdf::2                   58657                       # What read queue length does an incoming req see
system.mem_ctrls.rdQLenPdf::3                   59743                       # What read queue length does an incoming req see
system.mem_ctrls.rdQLenPdf::4                   15901                       # What read queue length does an incoming req see
system.mem_ctrls.rdQLenPdf::5                   15830                       # What read queue length does an incoming req see
system.mem_ctrls.rdQLenPdf::6                   15706                       # What read queue length does an incoming req see
system.mem_ctrls.rdQLenPdf::7                   14620                       # What read queue length does an incoming req see
system.mem_ctrls.rdQLenPdf::8                       3                       # What read queue length does an incoming req see
system.mem_ctrls.rdQLenPdf::9                       3                       # What read queue length does an incoming req see
system.mem_ctrls.rdQLenPdf::10                      3                       # What read queue length does an incoming req see
system.mem_ctrls.rdQLenPdf::11                      3                       # What read queue length does an incoming req see
system.mem_ctrls.rdQLenPdf::12                      0                       # What read queue length does an incoming req see
system.mem_ctrls.rdQLenPdf::13                      0                       # What read queue length does an incoming req see
system.mem_ctrls.rdQLenPdf::14                      0                       # What read queue length does an incoming req see
system.mem_ctrls.rdQLenPdf::15                      0                       # What read queue length does an incoming req see
system.mem_ctrls.rdQLenPdf::16                      0                       # What read queue length does an incoming req see
system.mem_ctrls.rdQLenPdf::17                      0                       # What read queue length does an incoming req see
system.mem_ctrls.rdQLenPdf::18                      0                       # What read queue length does an incoming req see
system.mem_ctrls.rdQLenPdf::19                      0                       # What read queue length does an incoming req see
system.mem_ctrls.rdQLenPdf::20                      0                       # What read queue length does an incoming req see
system.mem_ctrls.rdQLenPdf::21                      0                       # What read queue length does an incoming req see
system.mem_ctrls.rdQLenPdf::22                      0                       # What read queue length does an incoming req see
system.mem_ctrls.rdQLenPdf::23                      0                       # What read queue length does an incoming req see
system.mem_ctrls.rdQLenPdf::24                      0                       # What read queue length does an incoming req see
system.mem_ctrls.rdQLenPdf::25                      0                       # What read queue length does an incoming req see
system.mem_ctrls.rdQLenPdf::26                      0                       # What read queue length does an incoming req see
system.mem_ctrls.rdQLenPdf::27                      0                       # What read queue length does an incoming req see
system.mem_ctrls.rdQLenPdf::28                      0                       # What read queue length does an incoming req see
system.mem_ctrls.rdQLenPdf::29                      0                       # What read queue length does an incoming req see
system.mem_ctrls.rdQLenPdf::30                      0                       # What read queue length does an incoming req see
system.mem_ctrls.rdQLenPdf::31                      0                       # What read queue length does an incoming req see
system.mem_ctrls.wrQLenPdf::0                       1                       # What write queue length does an incoming req see
system.mem_ctrls.wrQLenPdf::1                       1                       # What write queue length does an incoming req see
system.mem_ctrls.wrQLenPdf::2                       1                       # What write queue length does an incoming req see
system.mem_ctrls.wrQLenPdf::3                       1                       # What write queue length does an incoming req see
system.mem_ctrls.wrQLenPdf::4                       1                       # What write queue length does an incoming req see
system.mem_ctrls.wrQLenPdf::5                       1                       # What write queue length does an incoming req see
system.mem_ctrls.wrQLenPdf::6                       1                       # What write queue length does an incoming req see
system.mem_ctrls.wrQLenPdf::7                       1                       # What write queue length does an incoming req see
system.mem_ctrls.wrQLenPdf::8                       1                       # What write queue length does an incoming req see
system.mem_ctrls.wrQLenPdf::9                       1                       # What write queue length does an incoming req see
system.mem_ctrls.wrQLenPdf::10                      1                       # What write queue length does an incoming req see
system.mem_ctrls.wrQLenPdf::11                      1                       # What write queue length does an incoming req see
system.mem_ctrls.wrQLenPdf::12                      1                       # What write queue length does an incoming req see
system.mem_ctrls.wrQLenPdf::13                      1                       # What write queue length does an incoming req see
system.mem_ctrls.wrQLenPdf::14                      1                       # What write queue length does an incoming req see
system.mem_ctrls.wrQLenPdf::15                    685                       # What write queue length does an incoming req see
system.mem_ctrls.wrQLenPdf::16                    706                       # What write queue length does an incoming req see
system.mem_ctrls.wrQLenPdf::17                   1767                       # What write queue length does an incoming req see
system.mem_ctrls.wrQLenPdf::18                   2441                       # What write queue length does an incoming req see
system.mem_ctrls.wrQLenPdf::19                   4201                       # What write queue length does an incoming req see
system.mem_ctrls.wrQLenPdf::20                   6252                       # What write queue length does an incoming req see
system.mem_ctrls.wrQLenPdf::21                   7395                       # What write queue length does an incoming req see
system.mem_ctrls.wrQLenPdf::22                   8235                       # What write queue length does an incoming req see
system.mem_ctrls.wrQLenPdf::23                   9717                       # What write queue length does an incoming req see
system.mem_ctrls.wrQLenPdf::24                  10546                       # What write queue length does an incoming req see
system.mem_ctrls.wrQLenPdf::25                  10754                       # What write queue length does an incoming req see
system.mem_ctrls.wrQLenPdf::26                  11471                       # What write queue length does an incoming req see
system.mem_ctrls.wrQLenPdf::27                  11571                       # What write queue length does an incoming req see
system.mem_ctrls.wrQLenPdf::28                  12307                       # What write queue length does an incoming req see
system.mem_ctrls.wrQLenPdf::29                  12336                       # What write queue length does an incoming req see
system.mem_ctrls.wrQLenPdf::30                  11633                       # What write queue length does an incoming req see
system.mem_ctrls.wrQLenPdf::31                  11260                       # What write queue length does an incoming req see
system.mem_ctrls.wrQLenPdf::32                  10385                       # What write queue length does an incoming req see
system.mem_ctrls.wrQLenPdf::33                   7950                       # What write queue length does an incoming req see
system.mem_ctrls.wrQLenPdf::34                   6428                       # What write queue length does an incoming req see
system.mem_ctrls.wrQLenPdf::35                   2783                       # What write queue length does an incoming req see
system.mem_ctrls.wrQLenPdf::36                     31                       # What write queue length does an incoming req see
system.mem_ctrls.wrQLenPdf::37                     25                       # What write queue length does an incoming req see
system.mem_ctrls.wrQLenPdf::38                     19                       # What write queue length does an incoming req see
system.mem_ctrls.wrQLenPdf::39                     11                       # What write queue length does an incoming req see
system.mem_ctrls.wrQLenPdf::40                      0                       # What write queue length does an incoming req see
system.mem_ctrls.wrQLenPdf::41                      0                       # What write queue length does an incoming req see
system.mem_ctrls.wrQLenPdf::42                      0                       # What write queue length does an incoming req see
system.mem_ctrls.wrQLenPdf::43                      0                       # What write queue length does an incoming req see
system.mem_ctrls.wrQLenPdf::44                      0                       # What write queue length does an incoming req see
system.mem_ctrls.wrQLenPdf::45                      0                       # What write queue length does an incoming req see
system.mem_ctrls.wrQLenPdf::46                      0                       # What write queue length does an incoming req see
system.mem_ctrls.wrQLenPdf::47                      0                       # What write queue length does an incoming req see
system.mem_ctrls.wrQLenPdf::48                      0                       # What write queue length does an incoming req see
system.mem_ctrls.wrQLenPdf::49                      0                       # What write queue length does an incoming req see
system.mem_ctrls.wrQLenPdf::50                      0                       # What write queue length does an incoming req see
system.mem_ctrls.wrQLenPdf::51                      0                       # What write queue length does an incoming req see
system.mem_ctrls.wrQLenPdf::52                      0                       # What write queue length does an incoming req see
system.mem_ctrls.wrQLenPdf::53                      0                       # What write queue length does an incoming req see
system.mem_ctrls.wrQLenPdf::54                      0                       # What write queue length does an incoming req see
system.mem_ctrls.wrQLenPdf::55                      0                       # What write queue length does an incoming req see
system.mem_ctrls.wrQLenPdf::56                      0                       # What write queue length does an incoming req see
system.mem_ctrls.wrQLenPdf::57                      0                       # What write queue length does an incoming req see
system.mem_ctrls.wrQLenPdf::58                      0                       # What write queue length does an incoming req see
system.mem_ctrls.wrQLenPdf::59                      0                       # What write queue length does an incoming req see
system.mem_ctrls.wrQLenPdf::60                      0                       # What write queue length does an incoming req see
system.mem_ctrls.wrQLenPdf::61                      0                       # What write queue length does an incoming req see
system.mem_ctrls.wrQLenPdf::62                      0                       # What write queue length does an incoming req see
system.mem_ctrls.wrQLenPdf::63                      0                       # What write queue length does an incoming req see
system.mem_ctrls.bytesPerActivate::samples        46302                       # Bytes accessed per row activation
system.mem_ctrls.bytesPerActivate::mean    633.578161                       # Bytes accessed per row activation
system.mem_ctrls.bytesPerActivate::gmean   527.737892                       # Bytes accessed per row activation
system.mem_ctrls.bytesPerActivate::stdev   338.087246                       # Bytes accessed per row activation
system.mem_ctrls.bytesPerActivate::0-127          648      1.40%      1.40% # Bytes accessed per row activation
system.mem_ctrls.bytesPerActivate::128-255          821      1.77%      3.17% # Bytes accessed per row activation
system.mem_ctrls.bytesPerActivate::256-383        14450     31.21%     34.38% # Bytes accessed per row activation
system.mem_ctrls.bytesPerActivate::384-511         1667      3.60%     37.98% # Bytes accessed per row activation
system.mem_ctrls.bytesPerActivate::512-639         6610     14.28%     52.26% # Bytes accessed per row activation
system.mem_ctrls.bytesPerActivate::640-767         1643      3.55%     55.81% # Bytes accessed per row activation
system.mem_ctrls.bytesPerActivate::768-895         2901      6.27%     62.07% # Bytes accessed per row activation
system.mem_ctrls.bytesPerActivate::896-1023          453      0.98%     63.05% # Bytes accessed per row activation
system.mem_ctrls.bytesPerActivate::1024-1151        17109     36.95%    100.00% # Bytes accessed per row activation
system.mem_ctrls.bytesPerActivate::total        46302                       # Bytes accessed per row activation
system.mem_ctrls.rdPerTurnAround::samples         9859                       # Reads before turning the bus around for writes
system.mem_ctrls.rdPerTurnAround::mean      30.171924                       # Reads before turning the bus around for writes
system.mem_ctrls.rdPerTurnAround::gmean     21.857494                       # Reads before turning the bus around for writes
system.mem_ctrls.rdPerTurnAround::stdev    177.804931                       # Reads before turning the bus around for writes
system.mem_ctrls.rdPerTurnAround::0-1023         9856     99.97%     99.97% # Reads before turning the bus around for writes
system.mem_ctrls.rdPerTurnAround::1024-2047            2      0.02%     99.99% # Reads before turning the bus around for writes
system.mem_ctrls.rdPerTurnAround::16384-17407            1      0.01%    100.00% # Reads before turning the bus around for writes
system.mem_ctrls.rdPerTurnAround::total          9859                       # Reads before turning the bus around for writes
system.mem_ctrls.wrPerTurnAround::samples         9859                       # Writes before turning the bus around for reads
system.mem_ctrls.wrPerTurnAround::mean      16.321026                       # Writes before turning the bus around for reads
system.mem_ctrls.wrPerTurnAround::gmean     16.287980                       # Writes before turning the bus around for reads
system.mem_ctrls.wrPerTurnAround::stdev      1.111959                       # Writes before turning the bus around for reads
system.mem_ctrls.wrPerTurnAround::16             9073     92.03%     92.03% # Writes before turning the bus around for reads
system.mem_ctrls.wrPerTurnAround::17                5      0.05%     92.08% # Writes before turning the bus around for reads
system.mem_ctrls.wrPerTurnAround::18               35      0.36%     92.43% # Writes before turning the bus around for reads
[...]
system.cpu.icache.ReadReq_avg_miss_latency::.cpu.inst 61732.111693                       # average ReadReq miss latency
system.cpu.icache.ReadReq_avg_miss_latency::total 61732.111693                       # average ReadReq miss latency
system.cpu.icache.ReadReq_mshr_misses::.cpu.inst          573                       # number of ReadReq MSHR misses
system.cpu.icache.ReadReq_mshr_misses::total          573                       # number of ReadReq MSHR misses
system.cpu.icache.ReadReq_mshr_miss_latency::.cpu.inst     34799500                       # number of ReadReq MSHR miss cycles
system.cpu.icache.ReadReq_mshr_miss_latency::total     34799500                       # number of ReadReq MSHR miss cycles
system.cpu.icache.ReadReq_mshr_miss_rate::.cpu.inst     0.000082                       # mshr miss rate for ReadReq accesses
system.cpu.icache.ReadReq_mshr_miss_rate::total     0.000082                       # mshr miss rate for ReadReq accesses
system.cpu.icache.ReadReq_avg_mshr_miss_latency::.cpu.inst 60732.111693                       # average ReadReq mshr miss latency
system.cpu.icache.ReadReq_avg_mshr_miss_latency::total 60732.111693                       # average ReadReq mshr miss latency
system.cpu.icache.tags.pwrStateResidencyTicks::UNDEFINED  82479261000                       # Cumulative time (in ticks) in various power states
system.cpu.icache.tags.tagsinuse           103.785823                       # Cycle average of tags in use
system.cpu.icache.tags.total_refs             7019604                       # Total number of references to valid blocks.
system.cpu.icache.tags.sampled_refs               573                       # Sample count of references to valid blocks.
system.cpu.icache.tags.avg_refs          12250.617801                       # Average number of references to valid blocks.
system.cpu.icache.tags.warmup_cycle            102500                       # Cycle when the warmup percentage was hit.
system.cpu.icache.tags.occ_blocks::.cpu.inst   103.785823                       # Average occupied blocks per requestor
system.cpu.icache.tags.occ_percent::.cpu.inst     0.810827                       # Average percentage of cache occupancy
system.cpu.icache.tags.occ_percent::total     0.810827                       # Average percentage of cache occupancy
system.cpu.icache.tags.occ_task_id_blocks::1024          115                       # Occupied blocks per task id
system.cpu.icache.tags.age_task_id_blocks_1024::3           24                       # Occupied blocks per task id
system.cpu.icache.tags.age_task_id_blocks_1024::4           91                       # Occupied blocks per task id
system.cpu.icache.tags.occ_task_id_percent::1024     0.898438                       # Percentage of cache occupancy per task id
system.cpu.icache.tags.tag_accesses           7020177                       # Number of tag accesses
system.cpu.icache.tags.data_accesses          7020177                       # Number of data accesses
system.cpu.dtb.walker.pwrStateResidencyTicks::UNDEFINED  82479261000                       # Cumulative time (in ticks) in various power states
system.cpu.dtb.stage2_mmu.stage2_tlb.walker.pwrStateResidencyTicks::UNDEFINED  82479261000                       # Cumulative time (in ticks) in various power states
system.cpu.dcache.pwrStateResidencyTicks::UNDEFINED  82479261000                       # Cumulative time (in ticks) in various power states
system.cpu.dcache.demand_hits::.cpu.data     51262894                       # number of demand (read+write) hits
system.cpu.dcache.demand_hits::total         51262894                       # number of demand (read+write) hits
system.cpu.dcache.overall_hits::.cpu.data     51264158                       # number of overall hits
system.cpu.dcache.overall_hits::total        51264158                       # number of overall hits
system.cpu.dcache.demand_misses::.cpu.data       786008                       # number of demand (read+write) misses
system.cpu.dcache.demand_misses::total         786008                       # number of demand (read+write) misses
system.cpu.dcache.overall_misses::.cpu.data       793165                       # number of overall misses
system.cpu.dcache.overall_misses::total        793165                       # number of overall misses
system.cpu.dcache.demand_miss_latency::.cpu.data  19738215500                       # number of demand (read+write) miss cycles
system.cpu.dcache.demand_miss_latency::total  19738215500                       # number of demand (read+write) miss cycles
system.cpu.dcache.overall_miss_latency::.cpu.data  19738215500                       # number of overall miss cycles
system.cpu.dcache.overall_miss_latency::total  19738215500                       # number of overall miss cycles
system.cpu.dcache.demand_accesses::.cpu.data     52048902                       # number of demand (read+write) accesses
system.cpu.dcache.demand_accesses::total     52048902                       # number of demand (read+write) accesses
system.cpu.dcache.overall_accesses::.cpu.data     52057323                       # number of overall (read+write) accesses
system.cpu.dcache.overall_accesses::total     52057323                       # number of overall (read+write) accesses
system.cpu.dcache.demand_miss_rate::.cpu.data     0.015101                       # miss rate for demand accesses
system.cpu.dcache.demand_miss_rate::total     0.015101                       # miss rate for demand accesses
system.cpu.dcache.overall_miss_rate::.cpu.data     0.015236                       # miss rate for overall accesses
system.cpu.dcache.overall_miss_rate::total     0.015236                       # miss rate for overall accesses
system.cpu.dcache.demand_avg_miss_latency::.cpu.data 25111.977868                       # average overall miss latency
system.cpu.dcache.demand_avg_miss_latency::total 25111.977868                       # average overall miss latency
system.cpu.dcache.overall_avg_miss_latency::.cpu.data 24885.383873                       # average overall miss latency
system.cpu.dcache.overall_avg_miss_latency::total 24885.383873                       # average overall miss latency
system.cpu.dcache.blocked_cycles::no_mshrs            0                       # number of cycles access was blocked
system.cpu.dcache.blocked_cycles::no_targets            0                       # number of cycles access was blocked
system.cpu.dcache.blocked::no_mshrs                 0                       # number of cycles access was blocked
system.cpu.dcache.blocked::no_targets               0                       # number of cycles access was blocked
system.cpu.dcache.avg_blocked_cycles::no_mshrs          nan                       # average number of cycles each access was blocked
system.cpu.dcache.avg_blocked_cycles::no_targets          nan                       # average number of cycles each access was blocked
system.cpu.dcache.writebacks::.writebacks       747340                       # number of writebacks
system.cpu.dcache.writebacks::total            747340                       # number of writebacks
system.cpu.dcache.demand_mshr_hits::.cpu.data        18520                       # number of demand (read+write) MSHR hits
system.cpu.dcache.demand_mshr_hits::total        18520                       # number of demand (read+write) MSHR hits
system.cpu.dcache.overall_mshr_hits::.cpu.data        18520                       # number of overall MSHR hits
system.cpu.dcache.overall_mshr_hits::total        18520                       # number of overall MSHR hits
system.cpu.dcache.demand_mshr_misses::.cpu.data       767488                       # number of demand (read+write) MSHR misses
system.cpu.dcache.demand_mshr_misses::total       767488                       # number of demand (read+write) MSHR misses
system.cpu.dcache.overall_mshr_misses::.cpu.data       769468                       # number of overall MSHR misses
system.cpu.dcache.overall_mshr_misses::total       769468                       # number of overall MSHR misses
system.cpu.dcache.demand_mshr_miss_latency::.cpu.data  17379578000                       # number of demand (read+write) MSHR miss cycles
system.cpu.dcache.demand_mshr_miss_latency::total  17379578000                       # number of demand (read+write) MSHR miss cycles
system.cpu.dcache.overall_mshr_miss_latency::.cpu.data  17556474000                       # number of overall MSHR miss cycles
system.cpu.dcache.overall_mshr_miss_latency::total  17556474000                       # number of overall MSHR miss cycles
system.cpu.dcache.demand_mshr_miss_rate::.cpu.data     0.014746                       # mshr miss rate for demand accesses
system.cpu.dcache.demand_mshr_miss_rate::total     0.014746                       # mshr miss rate for demand accesses
system.cpu.dcache.overall_mshr_miss_rate::.cpu.data     0.014781                       # mshr miss rate for overall accesses
system.cpu.dcache.overall_mshr_miss_rate::total     0.014781                       # mshr miss rate for overall accesses
system.cpu.dcache.demand_avg_mshr_miss_latency::.cpu.data 22644.755358                       # average overall mshr miss latency
system.cpu.dcache.demand_avg_mshr_miss_latency::total 22644.755358                       # average overall mshr miss latency
system.cpu.dcache.overall_avg_mshr_miss_latency::.cpu.data 22816.379629                       # average overall mshr miss latency
system.cpu.dcache.overall_avg_mshr_miss_latency::total 22816.379629                       # average overall mshr miss latency
system.cpu.dcache.replacements                 769211                       # number of replacements
system.cpu.dcache.ReadReq_hits::.cpu.data     40655942                       # number of ReadReq hits
system.cpu.dcache.ReadReq_hits::total        40655942                       # number of ReadReq hits
system.cpu.dcache.ReadReq_misses::.cpu.data       442874                       # number of ReadReq misses
system.cpu.dcache.ReadReq_misses::total        442874                       # number of ReadReq misses
system.cpu.dcache.ReadReq_miss_latency::.cpu.data   7671829000                       # number of ReadReq miss cycles
system.cpu.dcache.ReadReq_miss_latency::total   7671829000                       # number of ReadReq miss cycles
system.cpu.dcache.ReadReq_accesses::.cpu.data     41098816                       # number of ReadReq accesses(hits+misses)
system.cpu.dcache.ReadReq_accesses::total     41098816                       # number of ReadReq accesses(hits+misses)
system.cpu.dcache.ReadReq_miss_rate::.cpu.data     0.010776                       # miss rate for ReadReq accesses
system.cpu.dcache.ReadReq_miss_rate::total     0.010776                       # miss rate for ReadReq accesses
system.cpu.dcache.ReadReq_avg_miss_latency::.cpu.data 17322.825454                       # average ReadReq miss latency
system.cpu.dcache.ReadReq_avg_miss_latency::total 17322.825454                       # average ReadReq miss latency
system.cpu.dcache.ReadReq_mshr_hits::.cpu.data         1979                       # number of ReadReq MSHR hits
system.cpu.dcache.ReadReq_mshr_hits::total         1979                       # number of ReadReq MSHR hits
system.cpu.dcache.ReadReq_mshr_misses::.cpu.data       440895                       # number of ReadReq MSHR misses
system.cpu.dcache.ReadReq_mshr_misses::total       440895                       # number of ReadReq MSHR misses
system.cpu.dcache.ReadReq_mshr_miss_latency::.cpu.data   7078785500                       # number of ReadReq MSHR miss cycles
system.cpu.dcache.ReadReq_mshr_miss_latency::total   7078785500                       # number of ReadReq MSHR miss cycles
system.cpu.dcache.ReadReq_mshr_miss_rate::.cpu.data     0.010728                       # mshr miss rate for ReadReq accesses
system.cpu.dcache.ReadReq_mshr_miss_rate::total     0.010728                       # mshr miss rate for ReadReq accesses
system.cpu.dcache.ReadReq_avg_mshr_miss_latency::.cpu.data 16055.490536                       # average ReadReq mshr miss latency
system.cpu.dcache.ReadReq_avg_mshr_miss_latency::total 16055.490536                       # average ReadReq mshr miss latency
system.cpu.dcache.WriteReq_hits::.cpu.data     10606952                       # number of WriteReq hits
system.cpu.dcache.WriteReq_hits::total       10606952                       # number of WriteReq hits
system.cpu.dcache.WriteReq_misses::.cpu.data       343134                       # number of WriteReq misses
system.cpu.dcache.WriteReq_misses::total       343134                       # number of WriteReq misses
system.cpu.dcache.WriteReq_miss_latency::.cpu.data  12066386500                       # number of WriteReq miss cycles
system.cpu.dcache.WriteReq_miss_latency::total  12066386500                       # number of WriteReq miss cycles
system.cpu.dcache.WriteReq_accesses::.cpu.data     10950086                       # number of WriteReq accesses(hits+misses)
system.cpu.dcache.WriteReq_accesses::total     10950086                       # number of WriteReq accesses(hits+misses)
system.cpu.dcache.WriteReq_miss_rate::.cpu.data     0.031336                       # miss rate for WriteReq accesses
system.cpu.dcache.WriteReq_miss_rate::total     0.031336                       # miss rate for WriteReq accesses
system.cpu.dcache.WriteReq_avg_miss_latency::.cpu.data 35165.231367                       # average WriteReq miss latency
system.cpu.dcache.WriteReq_avg_miss_latency::total 35165.231367                       # average WriteReq miss latency
system.cpu.dcache.WriteReq_mshr_hits::.cpu.data        16541                       # number of WriteReq MSHR hits
system.cpu.dcache.WriteReq_mshr_hits::total        16541                       # number of WriteReq MSHR hits
system.cpu.dcache.WriteReq_mshr_misses::.cpu.data       326593                       # number of WriteReq MSHR misses
system.cpu.dcache.WriteReq_mshr_misses::total       326593                       # number of WriteReq MSHR misses
system.cpu.dcache.WriteReq_mshr_miss_latency::.cpu.data  10300792500                       # number of WriteReq MSHR miss cycles
system.cpu.dcache.WriteReq_mshr_miss_latency::total  10300792500                       # number of WriteReq MSHR miss cycles
system.cpu.dcache.WriteReq_mshr_miss_rate::.cpu.data     0.029826                       # mshr miss rate for WriteReq accesses
system.cpu.dcache.WriteReq_mshr_miss_rate::total     0.029826                       # mshr miss rate for WriteReq accesses
system.cpu.dcache.WriteReq_avg_mshr_miss_latency::.cpu.data 31540.150891                       # average WriteReq mshr miss latency
system.cpu.dcache.WriteReq_avg_mshr_miss_latency::total 31540.150891                       # average WriteReq mshr miss latency
system.cpu.dcache.SoftPFReq_hits::.cpu.data         1264                       # number of SoftPFReq hits
system.cpu.dcache.SoftPFReq_hits::total          1264                       # number of SoftPFReq hits
system.cpu.dcache.SoftPFReq_misses::.cpu.data         7157                       # number of SoftPFReq misses
system.cpu.dcache.SoftPFReq_misses::total         7157                       # number of SoftPFReq misses
system.cpu.dcache.SoftPFReq_accesses::.cpu.data         8421                       # number of SoftPFReq accesses(hits+misses)
system.cpu.dcache.SoftPFReq_accesses::total         8421                       # number of SoftPFReq accesses(hits+misses)
system.cpu.dcache.SoftPFReq_miss_rate::.cpu.data     0.849899                       # miss rate for SoftPFReq accesses
system.cpu.dcache.SoftPFReq_miss_rate::total     0.849899                       # miss rate for SoftPFReq accesses
system.cpu.dcache.SoftPFReq_mshr_misses::.cpu.data         1980                       # number of SoftPFReq MSHR misses
system.cpu.dcache.SoftPFReq_mshr_misses::total         1980                       # number of SoftPFReq MSHR misses
system.cpu.dcache.SoftPFReq_mshr_miss_latency::.cpu.data    176896000                       # number of SoftPFReq MSHR miss cycles
system.cpu.dcache.SoftPFReq_mshr_miss_latency::total    176896000                       # number of SoftPFReq MSHR miss cycles
system.cpu.dcache.SoftPFReq_mshr_miss_rate::.cpu.data     0.235126                       # mshr miss rate for SoftPFReq accesses
system.cpu.dcache.SoftPFReq_mshr_miss_rate::total     0.235126                       # mshr miss rate for SoftPFReq accesses
system.cpu.dcache.SoftPFReq_avg_mshr_miss_latency::.cpu.data 89341.414141                       # average SoftPFReq mshr miss latency
system.cpu.dcache.SoftPFReq_avg_mshr_miss_latency::total 89341.414141                       # average SoftPFReq mshr miss latency
system.cpu.dcache.LoadLockedReq_hits::.cpu.data           38                       # number of LoadLockedReq hits
system.cpu.dcache.LoadLockedReq_hits::total           38                       # number of LoadLockedReq hits
system.cpu.dcache.LoadLockedReq_accesses::.cpu.data           38                       # number of LoadLockedReq accesses(hits+misses)
system.cpu.dcache.LoadLockedReq_accesses::total           38                       # number of LoadLockedReq accesses(hits+misses)
system.cpu.dcache.StoreCondReq_hits::.cpu.data           38                       # number of StoreCondReq hits
system.cpu.dcache.StoreCondReq_hits::total           38                       # number of StoreCondReq hits
system.cpu.dcache.StoreCondReq_accesses::.cpu.data           38                       # number of StoreCondReq accesses(hits+misses)
system.cpu.dcache.StoreCondReq_accesses::total           38                       # number of StoreCondReq accesses(hits+misses)
system.cpu.dcache.tags.pwrStateResidencyTicks::UNDEFINED  82479261000                       # Cumulative time (in ticks) in various power states
system.cpu.dcache.tags.tagsinuse           251.912898                       # Cycle average of tags in use
system.cpu.dcache.tags.total_refs            52033701                       # Total number of references to valid blocks.
system.cpu.dcache.tags.sampled_refs            769467                       # Sample count of references to valid blocks.
system.cpu.dcache.tags.avg_refs             67.623044                       # Average number of references to valid blocks.
system.cpu.dcache.tags.warmup_cycle            210500                       # Cycle when the warmup percentage was hit.
system.cpu.dcache.tags.occ_blocks::.cpu.data   251.912898                       # Average occupied blocks per requestor
system.cpu.dcache.tags.occ_percent::.cpu.data     0.984035                       # Average percentage of cache occupancy
system.cpu.dcache.tags.occ_percent::total     0.984035                       # Average percentage of cache occupancy
system.cpu.dcache.tags.occ_task_id_blocks::1024          256                       # Occupied blocks per task id
system.cpu.dcache.tags.age_task_id_blocks_1024::0          190                       # Occupied blocks per task id
system.cpu.dcache.tags.age_task_id_blocks_1024::1           65                       # Occupied blocks per task id
system.cpu.dcache.tags.age_task_id_blocks_1024::2            1                       # Occupied blocks per task id
system.cpu.dcache.tags.occ_task_id_percent::1024            1                       # Percentage of cache occupancy per task id
system.cpu.dcache.tags.tag_accesses         104884265                       # Number of tag accesses
system.cpu.dcache.tags.data_accesses        104884265                       # Number of data accesses
system.cpu.itb.walker.pwrStateResidencyTicks::UNDEFINED  82479261000                       # Cumulative time (in ticks) in various power states
system.cpu.itb.stage2_mmu.stage2_tlb.walker.pwrStateResidencyTicks::UNDEFINED  82479261000                       # Cumulative time (in ticks) in various power states

---------- End Simulation Statistics   ----------
