
---------- Begin Simulation Statistics ----------
final_tick                                81330387000                       # Number of ticks from beginning of simulation (restored from checkpoints and never reset)
host_inst_rate                                 454530                       # Simulator instruction rate (inst/s)
host_mem_usage                                 681240                       # Number of bytes of host memory used
host_op_rate                                   455422                       # Simulator op (including micro ops) rate (op/s)
host_seconds                                   220.01                       # Real time elapsed on the host
host_tick_rate                              369670597                       # Simulator tick rate (ticks/s)
sim_freq                                 1000000000000                       # Frequency of simulated ticks
sim_insts                                   100000001                       # Number of instructions simulated
sim_ops                                     100196363                       # Number of ops (including micro ops) simulated
sim_seconds                                  0.081330                       # Number of seconds simulated
sim_ticks                                 81330387000                       # Number of ticks simulated
system.cpu.branchPred.BTBCorrect                    0                       # Number of correct BTB predictions (this stat may not work properly.
system.cpu.branchPred.BTBHitPct             99.616834                       # BTB Hit Percentage
system.cpu.branchPred.BTBHits                 2096247                       # Number of BTB hits
system.cpu.branchPred.BTBLookups              2104310                       # Number of BTB lookups
system.cpu.branchPred.RASInCorrect                  5                       # Number of incorrect RAS predictions.
system.cpu.branchPred.condIncorrect             81379                       # Number of conditional branches incorrect
system.cpu.branchPred.condPredicted           3728770                       # Number of conditional branches predicted
system.cpu.branchPred.indirectHits                301                       # Number of indirect target hits.
system.cpu.branchPred.indirectLookups            1021                       # Number of indirect predictor lookups.
system.cpu.branchPred.indirectMisses              720                       # Number of indirect misses.
system.cpu.branchPred.lookups                 4479151                       # Number of BP lookups
system.cpu.branchPred.usedRAS                   65346                       # Number of times the RAS was used to get a target.
system.cpu.branchPredindirectMispredicted          163                       # Number of mispredicted indirect branches.
system.cpu.committedInsts                   100000001                       # Number of instructions committed
system.cpu.committedOps                     100196363                       # Number of ops (including micro ops) committed
system.cpu.cpi                               1.626608                       # CPI: cycles per instruction
system.cpu.discardedOps                        190768                       # Number of ops (including micro ops) which were discarded before commit
system.cpu.dtb.accesses                             0                       # DTB accesses
system.cpu.dtb.align_faults                         0                       # Number of TLB faults due to alignment restrictions
system.cpu.dtb.domain_faults                        0                       # Number of TLB faults due to domain restrictions
system.cpu.dtb.flush_entries                        0                       # Number of entries that have been flushed from TLB
system.cpu.dtb.flush_tlb                            0                       # Number of times complete TLB was flushed
system.cpu.dtb.flush_tlb_asid                       0                       # Number of times TLB was flushed by ASID
system.cpu.dtb.flush_tlb_mva                        0                       # Number of times TLB was flushed by MVA
system.cpu.dtb.flush_tlb_mva_asid                   0                       # Number of times TLB was flushed by MVA & ASID
system.cpu.dtb.hits                                 0                       # DTB hits
system.cpu.dtb.inst_accesses                        0                       # ITB inst accesses
system.cpu.dtb.inst_hits                            0                       # ITB inst hits
system.cpu.dtb.inst_misses                          0                       # ITB inst misses
system.cpu.dtb.misses                               0                       # DTB misses
system.cpu.dtb.perms_faults                         0                       # Number of TLB faults due to permissions restrictions
system.cpu.dtb.prefetch_faults                      0                       # Number of TLB faults due to prefetch
system.cpu.dtb.read_accesses                        0                       # DTB read accesses
system.cpu.dtb.read_hits                            0                       # DTB read hits
system.cpu.dtb.read_misses                          0                       # DTB read misses
system.cpu.dtb.stage2_mmu.stage2_tlb.accesses            0                       # DTB accesses
system.cpu.dtb.stage2_mmu.stage2_tlb.align_faults            0                       # Number of TLB faults due to alignment restrictions
system.cpu.dtb.stage2_mmu.stage2_tlb.domain_faults            0                       # Number of TLB faults due to domain restrictions
system.cpu.dtb.stage2_mmu.stage2_tlb.flush_entries            0                       # Number of entries that have been flushed from TLB
system.cpu.dtb.stage2_mmu.stage2_tlb.flush_tlb            0                       # Number of times complete TLB was flushed
system.cpu.dtb.stage2_mmu.stage2_tlb.flush_tlb_asid            0                       # Number of times TLB was flushed by ASID
system.cpu.dtb.stage2_mmu.stage2_tlb.flush_tlb_mva            0                       # Number of times TLB was flushed by MVA
system.cpu.dtb.stage2_mmu.stage2_tlb.flush_tlb_mva_asid            0                       # Number of times TLB was flushed by MVA & ASID
system.cpu.dtb.stage2_mmu.stage2_tlb.hits            0                       # DTB hits
system.cpu.dtb.stage2_mmu.stage2_tlb.inst_accesses            0                       # ITB inst accesses
system.cpu.dtb.stage2_mmu.stage2_tlb.inst_hits            0                       # ITB inst hits
system.cpu.dtb.stage2_mmu.stage2_tlb.inst_misses            0                       # ITB inst misses
system.cpu.dtb.stage2_mmu.stage2_tlb.misses            0                       # DTB misses
system.cpu.dtb.stage2_mmu.stage2_tlb.perms_faults            0                       # Number of TLB faults due to permissions restrictions
system.cpu.dtb.stage2_mmu.stage2_tlb.prefetch_faults            0                       # Number of TLB faults due to prefetch
system.cpu.dtb.stage2_mmu.stage2_tlb.read_accesses            0                       # DTB read accesses
system.cpu.dtb.stage2_mmu.stage2_tlb.read_hits            0                       # DTB read hits
system.cpu.dtb.stage2_mmu.stage2_tlb.read_misses            0                       # DTB read misses
system.cpu.dtb.stage2_mmu.stage2_tlb.walker.walkRequestOrigin_Requested::Data            0                       # Table walker requests started/completed, data/inst
system.cpu.dtb.stage2_mmu.stage2_tlb.walker.walkRequestOrigin_Requested::Inst            0                       # Table walker requests started/completed, data/inst
system.cpu.dtb.stage2_mmu.stage2_tlb.walker.walkRequestOrigin_Requested::total            0                       # Table walker requests started/completed, data/inst
system.cpu.dtb.stage2_mmu.stage2_tlb.walker.walkRequestOrigin_Completed::Data            0                       # Table walker requests started/completed, data/inst
system.cpu.dtb.stage2_mmu.stage2_tlb.walker.walkRequestOrigin_Completed::Inst            0                       # Table walker requests started/completed, data/inst
system.cpu.dtb.stage2_mmu.stage2_tlb.walker.walkRequestOrigin_Completed::total            0                       # Table walker requests started/completed, data/inst
system.cpu.dtb.stage2_mmu.stage2_tlb.walker.walkRequestOrigin::total            0                       # Table walker requests started/completed, data/inst
system.cpu.dtb.stage2_mmu.stage2_tlb.walker.walks            0                       # Table walker walks requested
system.cpu.dtb.stage2_mmu.stage2_tlb.write_accesses            0                       # DTB write accesses
system.cpu.dtb.stage2_mmu.stage2_tlb.write_hits            0                       # DTB write hits
system.cpu.dtb.stage2_mmu.stage2_tlb.write_misses            0                       # DTB write misses
system.cpu.dtb.walker.walkRequestOrigin_Requested::Data            0                       # Table walker requests started/completed, data/inst
system.cpu.dtb.walker.walkRequestOrigin_Requested::Inst            0                       # Table walker requests started/completed, data/inst
system.cpu.dtb.walker.walkRequestOrigin_Requested::total            0                       # Table walker requests started/completed, data/inst
system.cpu.dtb.walker.walkRequestOrigin_Completed::Data            0                       # Table walker requests started/completed, data/inst
system.cpu.dtb.walker.walkRequestOrigin_Completed::Inst            0                       # Table walker requests started/completed, data/inst
system.cpu.dtb.walker.walkRequestOrigin_Completed::total            0                       # Table walker requests started/completed, data/inst
system.cpu.dtb.walker.walkRequestOrigin::total            0                       # Table walker requests started/completed, data/inst
system.cpu.dtb.walker.walks                         0                       # Table walker walks requested
system.cpu.dtb.write_accesses                       0                       # DTB write accesses
system.cpu.dtb.write_hits                           0                       # DTB write hits
system.cpu.dtb.write_misses                         0                       # DTB write misses
system.cpu.fetch2.amo_instructions                  0                       # Number of memory atomic instructions successfully decoded
system.cpu.fetch2.fp_instructions                   0                       # Number of floating point instructions successfully decoded
system.cpu.fetch2.int_instructions           42614978                       # Number of integer instructions successfully decoded
system.cpu.fetch2.load_instructions          43408129                       # Number of memory load instructions successfully decoded
system.cpu.fetch2.store_instructions         11002217                       # Number of memory store instructions successfully decoded
system.cpu.fetch2.vec_instructions                  0                       # Number of SIMD instructions successfully decoded
system.cpu.idleCycles                        30322879                       # Total number of cycles that the object has spent stopped
system.cpu.ipc                               0.614776                       # IPC: instructions per cycle
system.cpu.itb.accesses                             0                       # DTB accesses
system.cpu.itb.align_faults                         0                       # Number of TLB faults due to alignment restrictions
system.cpu.itb.domain_faults                        0                       # Number of TLB faults due to domain restrictions
system.cpu.itb.flush_entries                        0                       # Number of entries that have been flushed from TLB
system.cpu.itb.flush_tlb                            0                       # Number of times complete TLB was flushed
system.cpu.itb.flush_tlb_asid                       0                       # Number of times TLB was flushed by ASID
system.cpu.itb.flush_tlb_mva                        0                       # Number of times TLB was flushed by MVA
system.cpu.itb.flush_tlb_mva_asid                   0                       # Number of times TLB was flushed by MVA & ASID
system.cpu.itb.hits                                 0                       # DTB hits
system.cpu.itb.inst_accesses                        0                       # ITB inst accesses
system.cpu.itb.inst_hits                            0                       # ITB inst hits
system.cpu.itb.inst_misses                          0                       # ITB inst misses
system.cpu.itb.misses                               0                       # DTB misses
system.cpu.itb.perms_faults                         0                       # Number of TLB faults due to permissions restrictions
system.cpu.itb.prefetch_faults                      0                       # Number of TLB faults due to prefetch
system.cpu.itb.read_accesses                        0                       # DTB read accesses
system.cpu.itb.read_hits                            0                       # DTB read hits
system.cpu.itb.read_misses                          0                       # DTB read misses
system.cpu.itb.stage2_mmu.stage2_tlb.accesses            0                       # DTB accesses
system.cpu.itb.stage2_mmu.stage2_tlb.align_faults            0                       # Number of TLB faults due to alignment restrictions
system.cpu.itb.stage2_mmu.stage2_tlb.domain_faults            0                       # Number of TLB faults due to domain restrictions
system.cpu.itb.stage2_mmu.stage2_tlb.flush_entries            0                       # Number of entries that have been flushed from TLB
system.cpu.itb.stage2_mmu.stage2_tlb.flush_tlb            0                       # Number of times complete TLB was flushed
system.cpu.itb.stage2_mmu.stage2_tlb.flush_tlb_asid            0                       # Number of times TLB was flushed by ASID
system.cpu.itb.stage2_mmu.stage2_tlb.flush_tlb_mva            0                       # Number of times TLB was flushed by MVA
system.cpu.itb.stage2_mmu.stage2_tlb.flush_tlb_mva_asid            0                       # Number of times TLB was flushed by MVA & ASID
system.cpu.itb.stage2_mmu.stage2_tlb.hits            0                       # DTB hits
system.cpu.itb.stage2_mmu.stage2_tlb.inst_accesses            0                       # ITB inst accesses
system.cpu.itb.stage2_mmu.stage2_tlb.inst_hits            0                       # ITB inst hits
system.cpu.itb.stage2_mmu.stage2_tlb.inst_misses            0                       # ITB inst misses
system.cpu.itb.stage2_mmu.stage2_tlb.misses            0                       # DTB misses
system.cpu.itb.stage2_mmu.stage2_tlb.perms_faults            0                       # Number of TLB faults due to permissions restrictions
system.cpu.itb.stage2_mmu.stage2_tlb.prefetch_faults            0                       # Number of TLB faults due to prefetch
system.cpu.itb.stage2_mmu.stage2_tlb.read_accesses            0                       # DTB read accesses
system.cpu.itb.stage2_mmu.stage2_tlb.read_hits            0                       # DTB read hits
system.cpu.itb.stage2_mmu.stage2_tlb.read_misses            0                       # DTB read misses
system.cpu.itb.stage2_mmu.stage2_tlb.walker.walkRequestOrigin_Requested::Data            0                       # Table walker requests started/completed, data/inst
system.cpu.itb.stage2_mmu.stage2_tlb.walker.walkRequestOrigin_Requested::Inst            0                       # Table walker requests started/completed, data/inst
system.cpu.itb.stage2_mmu.stage2_tlb.walker.walkRequestOrigin_Requested::total            0                       # Table walker requests started/completed, data/inst
system.cpu.itb.stage2_mmu.stage2_tlb.walker.walkRequestOrigin_Completed::Data            0                       # Table walker requests started/completed, data/inst
system.cpu.itb.stage2_mmu.stage2_tlb.walker.walkRequestOrigin_Completed::Inst            0                       # Table walker requests started/completed, data/inst
system.cpu.itb.stage2_mmu.stage2_tlb.walker.walkRequestOrigin_Completed::total            0                       # Table walker requests started/completed, data/inst
system.cpu.itb.stage2_mmu.stage2_tlb.walker.walkRequestOrigin::total            0                       # Table walker requests started/completed, data/inst
system.cpu.itb.stage2_mmu.stage2_tlb.walker.walks            0                       # Table walker walks requested
system.cpu.itb.stage2_mmu.stage2_tlb.write_accesses            0                       # DTB write accesses
system.cpu.itb.stage2_mmu.stage2_tlb.write_hits            0                       # DTB write hits
system.cpu.itb.stage2_mmu.stage2_tlb.write_misses            0                       # DTB write misses
system.cpu.itb.walker.walkRequestOrigin_Requested::Data            0                       # Table walker requests started/completed, data/inst
system.cpu.itb.walker.walkRequestOrigin_Requested::Inst            0                       # Table walker requests started/completed, data/inst
system.cpu.itb.walker.walkRequestOrigin_Requested::total            0                       # Table walker requests started/completed, data/inst
system.cpu.itb.walker.walkRequestOrigin_Completed::Data            0                       # Table walker requests started/completed, data/inst
system.cpu.itb.walker.walkRequestOrigin_Completed::Inst            0                       # Table walker requests started/completed, data/inst
system.cpu.itb.walker.walkRequestOrigin_Completed::total            0                       # Table walker requests started/completed, data/inst
system.cpu.itb.walker.walkRequestOrigin::total            0                       # Table walker requests started/completed, data/inst
system.cpu.itb.walker.walks                         0                       # Table walker walks requested
system.cpu.itb.write_accesses                       0                       # DTB write accesses
system.cpu.itb.write_hits                           0                       # DTB write hits
system.cpu.itb.write_misses                         0                       # DTB write misses
system.cpu.numCycles                        162660774                       # number of cpu cycles simulated
system.cpu.numFetchSuspends                         0                       # Number of times Execute suspended instruction fetching
system.cpu.numWorkItemsCompleted                    0                       # number of work items this cpu completed
system.cpu.numWorkItemsStarted                      0                       # number of work items this cpu started
system.cpu.op_class_0::No_OpClass                   0      0.00%      0.00% # Class of committed instruction
system.cpu.op_class_0::IntAlu                46531400     46.44%     46.44% # Class of committed instruction
system.cpu.op_class_0::IntMult                  20720      0.02%     46.46% # Class of committed instruction
system.cpu.op_class_0::IntDiv                       0      0.00%     46.46% # Class of committed instruction
system.cpu.op_class_0::FloatAdd                     0      0.00%     46.46% # Class of committed instruction
system.cpu.op_class_0::FloatCmp                     0      0.00%     46.46% # Class of committed instruction
system.cpu.op_class_0::FloatCvt                     0      0.00%     46.46% # Class of committed instruction
system.cpu.op_class_0::FloatMult                    0      0.00%     46.46% # Class of committed instruction
system.cpu.op_class_0::FloatMultAcc                 0      0.00%     46.46% # Class of committed instruction
system.cpu.op_class_0::FloatDiv                     0      0.00%     46.46% # Class of committed instruction
system.cpu.op_class_0::FloatMisc                    0      0.00%     46.46% # Class of committed instruction
system.cpu.op_class_0::FloatSqrt                    0      0.00%     46.46% # Class of committed instruction
system.cpu.op_class_0::SimdAdd                      0      0.00%     46.46% # Class of committed instruction
system.cpu.op_class_0::SimdAddAcc                   0      0.00%     46.46% # Class of committed instruction
system.cpu.op_class_0::SimdAlu                      0      0.00%     46.46% # Class of committed instruction
system.cpu.op_class_0::SimdCmp                      0      0.00%     46.46% # Class of committed instruction
system.cpu.op_class_0::SimdCvt                      0      0.00%     46.46% # Class of committed instruction
system.cpu.op_class_0::SimdMisc                     0      0.00%     46.46% # Class of committed instruction
system.cpu.op_class_0::SimdMult                     0      0.00%     46.46% # Class of committed instruction
system.cpu.op_class_0::SimdMultAcc                  0      0.00%     46.46% # Class of committed instruction
system.cpu.op_class_0::SimdShift                    0      0.00%     46.46% # Class of committed instruction
system.cpu.op_class_0::SimdShiftAcc                 0      0.00%     46.46% # Class of committed instruction
system.cpu.op_class_0::SimdDiv                      0      0.00%     46.46% # Class of committed instruction
system.cpu.op_class_0::SimdSqrt                     0      0.00%     46.46% # Class of committed instruction
system.cpu.op_class_0::SimdFloatAdd                 0      0.00%     46.46% # Class of committed instruction
system.cpu.op_class_0::SimdFloatAlu                 0      0.00%     46.46% # Class of committed instruction
system.cpu.op_class_0::SimdFloatCmp                 0      0.00%     46.46% # Class of committed instruction
system.cpu.op_class_0::SimdFloatCvt                 0      0.00%     46.46% # Class of committed instruction
system.cpu.op_class_0::SimdFloatDiv                 0      0.00%     46.46% # Class of committed instruction
system.cpu.op_class_0::SimdFloatMisc               18      0.00%     46.46% # Class of committed instruction
system.cpu.op_class_0::SimdFloatMult                0      0.00%     46.46% # Class of committed instruction
system.cpu.op_class_0::SimdFloatMultAcc             0      0.00%     46.46% # Class of committed instruction
system.cpu.op_class_0::SimdFloatSqrt                0      0.00%     46.46% # Class of committed instruction
system.cpu.op_class_0::SimdReduceAdd                0      0.00%     46.46% # Class of committed instruction
system.cpu.op_class_0::SimdReduceAlu                0      0.00%     46.46% # Class of committed instruction
system.cpu.op_class_0::SimdReduceCmp                0      0.00%     46.46% # Class of committed instruction
system.cpu.op_class_0::SimdFloatReduceAdd            0      0.00%     46.46% # Class of committed instruction
system.cpu.op_class_0::SimdFloatReduceCmp            0      0.00%     46.46% # Class of committed instruction
system.cpu.op_class_0::SimdAes                      0      0.00%     46.46% # Class of committed instruction
system.cpu.op_class_0::SimdAesMix                   0      0.00%     46.46% # Class of committed instruction
system.cpu.op_class_0::SimdSha1Hash                 0      0.00%     46.46% # Class of committed instruction
system.cpu.op_class_0::SimdSha1Hash2                0      0.00%     46.46% # Class of committed instruction
system.cpu.op_class_0::SimdSha256Hash               0      0.00%     46.46% # Class of committed instruction
system.cpu.op_class_0::SimdSha256Hash2              0      0.00%     46.46% # Class of committed instruction
system.cpu.op_class_0::SimdShaSigma2                0      0.00%     46.46% # Class of committed instruction
system.cpu.op_class_0::SimdShaSigma3                0      0.00%     46.46% # Class of committed instruction
system.cpu.op_class_0::SimdPredAlu                  0      0.00%     46.46% # Class of committed instruction
system.cpu.op_class_0::MemRead               42693601     42.61%     89.07% # Class of committed instruction
system.cpu.op_class_0::MemWrite              10950624     10.93%    100.00% # Class of committed instruction
system.cpu.op_class_0::FloatMemRead                 0      0.00%    100.00% # Class of committed instruction
system.cpu.op_class_0::FloatMemWrite                0      0.00%    100.00% # Class of committed instruction
system.cpu.op_class_0::IprAccess                    0      0.00%    100.00% # Class of committed instruction
system.cpu.op_class_0::InstPrefetch                 0      0.00%    100.00% # Class of committed instruction
system.cpu.op_class_0::total                100196363                       # Class of committed instruction
system.cpu.tickCycles                       132337895                       # Number of cycles that the object actually ticked
system.cpu.workload.numSyscalls                    84                       # Number of system calls
system.membus.snoop_filter.hit_multi_requests            0                       # Number of requests hitting in the snoop filter with multiple (>1) holders of the requested data.
system.membus.snoop_filter.hit_multi_snoops            0                       # Number of snoops hitting in the snoop filter with multiple (>1) holders of the requested data.
system.membus.snoop_filter.hit_single_requests        57895                       # Number of requests hitting in the snoop filter with a single holder of the requested data.
system.membus.snoop_filter.hit_single_snoops            0                       # Number of snoops hitting in the snoop filter with a single holder of the requested data.
system.membus.snoop_filter.tot_requests        132253                       # Total number of requests made to the snoop filter.
system.membus.snoop_filter.tot_snoops               0                       # Total number of snoops made to the snoop filter.
system.tol2bus.snoop_filter.hit_multi_requests          179                       # Number of requests hitting in the snoop filter with multiple (>1) holders of the requested data.
system.tol2bus.snoop_filter.hit_multi_snoops            1                       # Number of snoops hitting in the snoop filter with multiple (>1) holders of the requested data.
system.tol2bus.snoop_filter.hit_single_requests       667072                       # Number of requests hitting in the snoop filter with a single holder of the requested data.
system.tol2bus.snoop_filter.hit_single_snoops          191                       # Number of snoops hitting in the snoop filter with a single holder of the requested data.
system.tol2bus.snoop_filter.tot_requests      1334523                       # Total number of requests made to the snoop filter.
system.tol2bus.snoop_filter.tot_snoops            192                       # Total number of snoops made to the snoop filter.
system.membus.pwrStateResidencyTicks::UNDEFINED  81330387000                       # Cumulative time (in ticks) in various power states
system.membus.trans_dist::ReadResp              19375                       # Transaction distribution
system.membus.trans_dist::WritebackDirty        40236                       # Transaction distribution
system.membus.trans_dist::CleanEvict            17650                       # Transaction distribution
system.membus.trans_dist::ReadExReq             54992                       # Transaction distribution
system.membus.trans_dist::ReadExResp            54992                       # Transaction distribution
system.membus.trans_dist::ReadSharedReq         19375                       # Transaction distribution
system.membus.pkt_count_system.l2.mem_side::system.mem_ctrls.port       206620                       # Packet count per connected master and slave (bytes)
system.membus.pkt_count::total                 206620                       # Packet count per connected master and slave (bytes)
system.membus.pkt_size_system.l2.mem_side::system.mem_ctrls.port     29338368                       # Cumulative packet size per connected master and slave (bytes)
system.membus.pkt_size::total                29338368                       # Cumulative packet size per connected master and slave (bytes)
system.membus.snoops                                0                       # Total snoops (count)
system.membus.snoopTraffic                          0                       # Total snoop traffic (bytes)
system.membus.snoop_fanout::samples             74367                       # Request fanout histogram
system.membus.snoop_fanout::mean                    0                       # Request fanout histogram
system.membus.snoop_fanout::stdev                   0                       # Request fanout histogram
system.membus.snoop_fanout::underflows              0      0.00%      0.00% # Request fanout histogram
system.membus.snoop_fanout::0                   74367    100.00%    100.00% # Request fanout histogram
system.membus.snoop_fanout::1                       0      0.00%    100.00% # Request fanout histogram
system.membus.snoop_fanout::overflows               0      0.00%    100.00% # Request fanout histogram
system.membus.snoop_fanout::min_value               0                       # Request fanout histogram
system.membus.snoop_fanout::max_value               0                       # Request fanout histogram
system.membus.snoop_fanout::total               74367                       # Request fanout histogram
system.membus.respLayer1.occupancy         1292916250                       # Layer occupancy (ticks)
system.membus.respLayer1.utilization              1.6                       # Layer utilization (%)
system.membus.reqLayer0.occupancy           797903500                       # Layer occupancy (ticks)
system.membus.reqLayer0.utilization               1.0                       # Layer utilization (%)
system.tol2bus.pwrStateResidencyTicks::UNDEFINED  81330387000                       # Cumulative time (in ticks) in various power states
system.tol2bus.trans_dist::ReadResp            356011                       # Transaction distribution
system.tol2bus.trans_dist::WritebackDirty       685301                       # Transaction distribution
system.tol2bus.trans_dist::WritebackClean          321                       # Transaction distribution
system.tol2bus.trans_dist::CleanEvict           39528                       # Transaction distribution
system.tol2bus.trans_dist::ReadExReq           311440                       # Transaction distribution
system.tol2bus.trans_dist::ReadExResp          311439                       # Transaction distribution
system.tol2bus.trans_dist::ReadCleanReq           443                       # Transaction distribution
system.tol2bus.trans_dist::ReadSharedReq       355568                       # Transaction distribution
system.tol2bus.pkt_count_system.cpu.icache.mem_side::system.l2.cpu_side         1207                       # Packet count per connected master and slave (bytes)
system.tol2bus.pkt_count_system.cpu.dcache.mem_side::system.l2.cpu_side      2000766                       # Packet count per connected master and slave (bytes)
system.tol2bus.pkt_count::total               2001973                       # Packet count per connected master and slave (bytes)
system.tol2bus.pkt_size_system.cpu.icache.mem_side::system.l2.cpu_side       195584                       # Cumulative packet size per connected master and slave (bytes)
system.tol2bus.pkt_size_system.cpu.dcache.mem_side::system.l2.cpu_side    335890432                       # Cumulative packet size per connected master and slave (bytes)
system.tol2bus.pkt_size::total              336086016                       # Cumulative packet size per connected master and slave (bytes)
system.tol2bus.snoops                           58078                       # Total snoops (count)
system.tol2bus.snoopTraffic                  10300416                       # Total snoop traffic (bytes)
system.tol2bus.snoop_fanout::samples           725529                       # Request fanout histogram
system.tol2bus.snoop_fanout::mean            0.000513                       # Request fanout histogram
system.tol2bus.snoop_fanout::stdev           0.022699                       # Request fanout histogram
system.tol2bus.snoop_fanout::underflows             0      0.00%      0.00% # Request fanout histogram
system.tol2bus.snoop_fanout::0                 725158     99.95%     99.95% # Request fanout histogram
system.tol2bus.snoop_fanout::1                    370      0.05%    100.00% # Request fanout histogram
system.tol2bus.snoop_fanout::2                      1      0.00%    100.00% # Request fanout histogram
system.tol2bus.snoop_fanout::overflows              0      0.00%    100.00% # Request fanout histogram
system.tol2bus.snoop_fanout::min_value              0                       # Request fanout histogram
system.tol2bus.snoop_fanout::max_value              2                       # Request fanout histogram
system.tol2bus.snoop_fanout::total             725529                       # Request fanout histogram
system.tol2bus.reqLayer0.occupancy         3248805500                       # Layer occupancy (ticks)
system.tol2bus.reqLayer0.utilization              4.0                       # Layer utilization (%)
system.tol2bus.respLayer1.occupancy        3001534494                       # Layer occupancy (ticks)
system.tol2bus.respLayer1.utilization             3.7                       # Layer utilization (%)
system.tol2bus.respLayer0.occupancy           1993500                       # Layer occupancy (ticks)
system.tol2bus.respLayer0.utilization             0.0                       # Layer utilization (%)
system.voltage_domain.voltage                       1                       # Voltage in Volts
system.clk_domain.clock                          1000                       # Clock period in ticks
system.l2.pwrStateResidencyTicks::UNDEFINED  81330387000                       # Cumulative time (in ticks) in various power states
system.l2.demand_hits::.cpu.inst                  150                       # number of demand (read+write) hits
system.l2.demand_hits::.cpu.data               592928                       # number of demand (read+write) hits
system.l2.demand_hits::total                   593078                       # number of demand (read+write) hits
system.l2.overall_hits::.cpu.inst                 150                       # number of overall hits
system.l2.overall_hits::.cpu.data              592928                       # number of overall hits
system.l2.overall_hits::total                  593078                       # number of overall hits
system.l2.demand_misses::.cpu.inst                293                       # number of demand (read+write) misses
system.l2.demand_misses::.cpu.data              74080                       # number of demand (read+write) misses
system.l2.demand_misses::total                  74373                       # number of demand (read+write) misses
system.l2.overall_misses::.cpu.inst               293                       # number of overall misses
system.l2.overall_misses::.cpu.data             74080                       # number of overall misses
system.l2.overall_misses::total                 74373                       # number of overall misses
system.l2.demand_miss_latency::.cpu.inst     28547000                       # number of demand (read+write) miss cycles
system.l2.demand_miss_latency::.cpu.data   8796214000                       # number of demand (read+write) miss cycles
system.l2.demand_miss_latency::total       8824761000                       # number of demand (read+write) miss cycles
system.l2.overall_miss_latency::.cpu.inst     28547000                       # number of overall miss cycles
system.l2.overall_miss_latency::.cpu.data   8796214000                       # number of overall miss cycles
system.l2.overall_miss_latency::total      8824761000                       # number of overall miss cycles
system.l2.demand_accesses::.cpu.inst              443                       # number of demand (read+write) accesses
system.l2.demand_accesses::.cpu.data           667008                       # number of demand (read+write) accesses
system.l2.demand_accesses::total               667451                       # number of demand (read+write) accesses
system.l2.overall_accesses::.cpu.inst             443                       # number of overall (read+write) accesses
system.l2.overall_accesses::.cpu.data          667008                       # number of overall (read+write) accesses
system.l2.overall_accesses::total              667451                       # number of overall (read+write) accesses
system.l2.demand_miss_rate::.cpu.inst        0.661400                       # miss rate for demand accesses
system.l2.demand_miss_rate::.cpu.data        0.111063                       # miss rate for demand accesses
system.l2.demand_miss_rate::total            0.111428                       # miss rate for demand accesses
system.l2.overall_miss_rate::.cpu.inst       0.661400                       # miss rate for overall accesses
system.l2.overall_miss_rate::.cpu.data       0.111063                       # miss rate for overall accesses
system.l2.overall_miss_rate::total           0.111428                       # miss rate for overall accesses
system.l2.demand_avg_miss_latency::.cpu.inst 97430.034130                       # average overall miss latency
system.l2.demand_avg_miss_latency::.cpu.data 118739.389849                       # average overall miss latency
system.l2.demand_avg_miss_latency::total 118655.439474                       # average overall miss latency
system.l2.overall_avg_miss_latency::.cpu.inst 97430.034130                       # average overall miss latency
system.l2.overall_avg_miss_latency::.cpu.data 118739.389849                       # average overall miss latency
system.l2.overall_avg_miss_latency::total 118655.439474                       # average overall miss latency
system.l2.blocked_cycles::no_mshrs                  0                       # number of cycles access was blocked
system.l2.blocked_cycles::no_targets                0                       # number of cycles access was blocked
system.l2.blocked::no_mshrs                         0                       # number of cycles access was blocked
system.l2.blocked::no_targets                       0                       # number of cycles access was blocked
system.l2.avg_blocked_cycles::no_mshrs            nan                       # average number of cycles each access was blocked
system.l2.avg_blocked_cycles::no_targets          nan                       # average number of cycles each access was blocked
system.l2.writebacks::.writebacks               40236                       # number of writebacks
system.l2.writebacks::total                     40236                       # number of writebacks
system.l2.demand_mshr_hits::.cpu.data               6                       # number of demand (read+write) MSHR hits
system.l2.demand_mshr_hits::total                   6                       # number of demand (read+write) MSHR hits
system.l2.overall_mshr_hits::.cpu.data              6                       # number of overall MSHR hits
system.l2.overall_mshr_hits::total                  6                       # number of overall MSHR hits
system.l2.demand_mshr_misses::.cpu.inst           293                       # number of demand (read+write) MSHR misses
system.l2.demand_mshr_misses::.cpu.data         74074                       # number of demand (read+write) MSHR misses
system.l2.demand_mshr_misses::total             74367                       # number of demand (read+write) MSHR misses
system.l2.overall_mshr_misses::.cpu.inst          293                       # number of overall MSHR misses
system.l2.overall_mshr_misses::.cpu.data        74074                       # number of overall MSHR misses
system.l2.overall_mshr_misses::total            74367                       # number of overall MSHR misses
system.l2.demand_mshr_miss_latency::.cpu.inst     25617000                       # number of demand (read+write) MSHR miss cycles
system.l2.demand_mshr_miss_latency::.cpu.data   8055051500                       # number of demand (read+write) MSHR miss cycles
system.l2.demand_mshr_miss_latency::total   8080668500                       # number of demand (read+write) MSHR miss cycles
system.l2.overall_mshr_miss_latency::.cpu.inst     25617000                       # number of overall MSHR miss cycles
system.l2.overall_mshr_miss_latency::.cpu.data   8055051500                       # number of overall MSHR miss cycles
system.l2.overall_mshr_miss_latency::total   8080668500                       # number of overall MSHR miss cycles
system.l2.demand_mshr_miss_rate::.cpu.inst     0.661400                       # mshr miss rate for demand accesses
system.l2.demand_mshr_miss_rate::.cpu.data     0.111054                       # mshr miss rate for demand accesses
system.l2.demand_mshr_miss_rate::total       0.111419                       # mshr miss rate for demand accesses
system.l2.overall_mshr_miss_rate::.cpu.inst     0.661400                       # mshr miss rate for overall accesses
system.l2.overall_mshr_miss_rate::.cpu.data     0.111054                       # mshr miss rate for overall accesses
system.l2.overall_mshr_miss_rate::total      0.111419                       # mshr miss rate for overall accesses
system.l2.demand_avg_mshr_miss_latency::.cpu.inst 87430.034130                       # average overall mshr miss latency
system.l2.demand_avg_mshr_miss_latency::.cpu.data 108743.303993                       # average overall mshr miss latency
system.l2.demand_avg_mshr_miss_latency::total 108659.331424                       # average overall mshr miss latency
system.l2.overall_avg_mshr_miss_latency::.cpu.inst 87430.034130                       # average overall mshr miss latency
system.l2.overall_avg_mshr_miss_latency::.cpu.data 108743.303993                       # average overall mshr miss latency
system.l2.overall_avg_mshr_miss_latency::total 108659.331424                       # average overall mshr miss latency
system.l2.replacements                          58078                       # number of replacements
system.l2.WritebackDirty_hits::.writebacks       645065                       # number of WritebackDirty hits
system.l2.WritebackDirty_hits::total           645065                       # number of WritebackDirty hits
system.l2.WritebackDirty_accesses::.writebacks       645065                       # number of WritebackDirty accesses(hits+misses)
system.l2.WritebackDirty_accesses::total       645065                       # number of WritebackDirty accesses(hits+misses)
system.l2.WritebackClean_hits::.writebacks          300                       # number of WritebackClean hits
system.l2.WritebackClean_hits::total              300                       # number of WritebackClean hits
system.l2.WritebackClean_accesses::.writebacks          300                       # number of WritebackClean accesses(hits+misses)
system.l2.WritebackClean_accesses::total          300                       # number of WritebackClean accesses(hits+misses)
system.l2.ReadExReq_hits::.cpu.data            256448                       # number of ReadExReq hits
system.l2.ReadExReq_hits::total                256448                       # number of ReadExReq hits
system.l2.ReadExReq_misses::.cpu.data           54992                       # number of ReadExReq misses
system.l2.ReadExReq_misses::total               54992                       # number of ReadExReq misses
system.l2.ReadExReq_miss_latency::.cpu.data   6887573000                       # number of ReadExReq miss cycles
system.l2.ReadExReq_miss_latency::total    6887573000                       # number of ReadExReq miss cycles
system.l2.ReadExReq_accesses::.cpu.data        311440                       # number of ReadExReq accesses(hits+misses)
system.l2.ReadExReq_accesses::total            311440                       # number of ReadExReq accesses(hits+misses)
system.l2.ReadExReq_miss_rate::.cpu.data     0.176573                       # miss rate for ReadExReq accesses
system.l2.ReadExReq_miss_rate::total         0.176573                       # miss rate for ReadExReq accesses
system.l2.ReadExReq_avg_miss_latency::.cpu.data 125246.817719                       # average ReadExReq miss latency
system.l2.ReadExReq_avg_miss_latency::total 125246.817719                       # average ReadExReq miss latency
system.l2.ReadExReq_mshr_misses::.cpu.data        54992                       # number of ReadExReq MSHR misses
system.l2.ReadExReq_mshr_misses::total          54992                       # number of ReadExReq MSHR misses
system.l2.ReadExReq_mshr_miss_latency::.cpu.data   6337653000                       # number of ReadExReq MSHR miss cycles
system.l2.ReadExReq_mshr_miss_latency::total   6337653000                       # number of ReadExReq MSHR miss cycles
system.l2.ReadExReq_mshr_miss_rate::.cpu.data     0.176573                       # mshr miss rate for ReadExReq accesses
system.l2.ReadExReq_mshr_miss_rate::total     0.176573                       # mshr miss rate for ReadExReq accesses
system.l2.ReadExReq_avg_mshr_miss_latency::.cpu.data 115246.817719                       # average ReadExReq mshr miss latency
system.l2.ReadExReq_avg_mshr_miss_latency::total 115246.817719                       # average ReadExReq mshr miss latency
system.l2.ReadCleanReq_hits::.cpu.inst            150                       # number of ReadCleanReq hits
system.l2.ReadCleanReq_hits::total                150                       # number of ReadCleanReq hits
system.l2.ReadCleanReq_misses::.cpu.inst          293                       # number of ReadCleanReq misses
system.l2.ReadCleanReq_misses::total              293                       # number of ReadCleanReq misses
system.l2.ReadCleanReq_miss_latency::.cpu.inst     28547000                       # number of ReadCleanReq miss cycles
system.l2.ReadCleanReq_miss_latency::total     28547000                       # number of ReadCleanReq miss cycles
system.l2.ReadCleanReq_accesses::.cpu.inst          443                       # number of ReadCleanReq accesses(hits+misses)
system.l2.ReadCleanReq_accesses::total            443                       # number of ReadCleanReq accesses(hits+misses)
system.l2.ReadCleanReq_miss_rate::.cpu.inst     0.661400                       # miss rate for ReadCleanReq accesses
system.l2.ReadCleanReq_miss_rate::total      0.661400                       # miss rate for ReadCleanReq accesses
system.l2.ReadCleanReq_avg_miss_latency::.cpu.inst 97430.034130                       # average ReadCleanReq miss latency
system.l2.ReadCleanReq_avg_miss_latency::total 97430.034130                       # average ReadCleanReq miss latency
system.l2.ReadCleanReq_mshr_misses::.cpu.inst          293                       # number of ReadCleanReq MSHR misses
system.l2.ReadCleanReq_mshr_misses::total          293                       # number of ReadCleanReq MSHR misses
system.l2.ReadCleanReq_mshr_miss_latency::.cpu.inst     25617000                       # number of ReadCleanReq MSHR miss cycles
system.l2.ReadCleanReq_mshr_miss_latency::total     25617000                       # number of ReadCleanReq MSHR miss cycles
system.l2.ReadCleanReq_mshr_miss_rate::.cpu.inst     0.661400                       # mshr miss rate for ReadCleanReq accesses
system.l2.ReadCleanReq_mshr_miss_rate::total     0.661400                       # mshr miss rate for ReadCleanReq accesses
system.l2.ReadCleanReq_avg_mshr_miss_latency::.cpu.inst 87430.034130                       # average ReadCleanReq mshr miss latency
system.l2.ReadCleanReq_avg_mshr_miss_latency::total 87430.034130                       # average ReadCleanReq mshr miss latency
system.l2.ReadSharedReq_hits::.cpu.data        336480                       # number of ReadSharedReq hits
system.l2.ReadSharedReq_hits::total            336480                       # number of ReadSharedReq hits
system.l2.ReadSharedReq_misses::.cpu.data        19088                       # number of ReadSharedReq misses
system.l2.ReadSharedReq_misses::total           19088                       # number of ReadSharedReq misses
system.l2.ReadSharedReq_miss_latency::.cpu.data   1908641000                       # number of ReadSharedReq miss cycles
system.l2.ReadSharedReq_miss_latency::total   1908641000                       # number of ReadSharedReq miss cycles
system.l2.ReadSharedReq_accesses::.cpu.data       355568                       # number of ReadSharedReq accesses(hits+misses)
system.l2.ReadSharedReq_accesses::total        355568                       # number of ReadSharedReq accesses(hits+misses)
system.l2.ReadSharedReq_miss_rate::.cpu.data     0.053683                       # miss rate for ReadSharedReq accesses
system.l2.ReadSharedReq_miss_rate::total     0.053683                       # miss rate for ReadSharedReq accesses
system.l2.ReadSharedReq_avg_miss_latency::.cpu.data 99991.670159                       # average ReadSharedReq miss latency
system.l2.ReadSharedReq_avg_miss_latency::total 99991.670159                       # average ReadSharedReq miss latency
system.l2.ReadSharedReq_mshr_hits::.cpu.data            6                       # number of ReadSharedReq MSHR hits
system.l2.ReadSharedReq_mshr_hits::total            6                       # number of ReadSharedReq MSHR hits
system.l2.ReadSharedReq_mshr_misses::.cpu.data        19082                       # number of ReadSharedReq MSHR misses
system.l2.ReadSharedReq_mshr_misses::total        19082                       # number of ReadSharedReq MSHR misses
system.l2.ReadSharedReq_mshr_miss_latency::.cpu.data   1717398500                       # number of ReadSharedReq MSHR miss cycles
system.l2.ReadSharedReq_mshr_miss_latency::total   1717398500                       # number of ReadSharedReq MSHR miss cycles
system.l2.ReadSharedReq_mshr_miss_rate::.cpu.data     0.053666                       # mshr miss rate for ReadSharedReq accesses
system.l2.ReadSharedReq_mshr_miss_rate::total     0.053666                       # mshr miss rate for ReadSharedReq accesses
system.l2.ReadSharedReq_avg_mshr_miss_latency::.cpu.data 90000.969500                       # average ReadSharedReq mshr miss latency
system.l2.ReadSharedReq_avg_mshr_miss_latency::total 90000.969500                       # average ReadSharedReq mshr miss latency
system.l2.tags.pwrStateResidencyTicks::UNDEFINED  81330387000                       # Cumulative time (in ticks) in various power states
system.l2.tags.tagsinuse                 15851.197545                       # Cycle average of tags in use
system.l2.tags.total_refs                     1334338                       # Total number of references to valid blocks.
system.l2.tags.sampled_refs                     74462                       # Sample count of references to valid blocks.
system.l2.tags.avg_refs                     17.919717                       # Average number of references to valid blocks.
system.l2.tags.warmup_cycle                     92000                       # Cycle when the warmup percentage was hit.
system.l2.tags.occ_blocks::.writebacks      41.743836                       # Average occupied blocks per requestor
system.l2.tags.occ_blocks::.cpu.inst        51.782758                       # Average occupied blocks per requestor
system.l2.tags.occ_blocks::.cpu.data     15757.670951                       # Average occupied blocks per requestor
system.l2.tags.occ_percent::.writebacks      0.002548                       # Average percentage of cache occupancy
system.l2.tags.occ_percent::.cpu.inst        0.003161                       # Average percentage of cache occupancy
system.l2.tags.occ_percent::.cpu.data        0.961772                       # Average percentage of cache occupancy
system.l2.tags.occ_percent::total            0.967480                       # Average percentage of cache occupancy
system.l2.tags.occ_task_id_blocks::1024         16384                       # Occupied blocks per task id
system.l2.tags.age_task_id_blocks_1024::2            3                       # Occupied blocks per task id
system.l2.tags.age_task_id_blocks_1024::3          985                       # Occupied blocks per task id
system.l2.tags.age_task_id_blocks_1024::4        15396                       # Occupied blocks per task id
system.l2.tags.occ_task_id_percent::1024            1                       # Percentage of cache occupancy per task id
system.l2.tags.tag_accesses                  10749214                       # Number of tag accesses
system.l2.tags.data_accesses                 10749214                       # Number of data accesses
system.cpu_voltage_domain.voltage                   1                       # Voltage in Volts
system.mem_ctrls.pwrStateResidencyTicks::UNDEFINED  81330387000                       # Cumulative time (in ticks) in various power states
system.mem_ctrls.bytes_read::.cpu.inst          75008                       # Number of bytes read from this memory
system.mem_ctrls.bytes_read::.cpu.data       18962944                       # Number of bytes read from this memory
system.mem_ctrls.bytes_read::total           19037952                       # Number of bytes read from this memory
system.mem_ctrls.bytes_inst_read::.cpu.inst        75008                       # Number of instructions bytes read from this memory
system.mem_ctrls.bytes_inst_read::total         75008                       # Number of instructions bytes read from this memory
system.mem_ctrls.bytes_written::.writebacks     10300416                       # Number of bytes written to this memory
system.mem_ctrls.bytes_written::total        10300416                       # Number of bytes written to this memory
system.mem_ctrls.num_reads::.cpu.inst             293                       # Number of read requests responded to by this memory
system.mem_ctrls.num_reads::.cpu.data           74074                       # Number of read requests responded to by this memory
system.mem_ctrls.num_reads::total               74367                       # Number of read requests responded to by this memory
system.mem_ctrls.num_writes::.writebacks        40236                       # Number of write requests responded to by this memory
system.mem_ctrls.num_writes::total              40236                       # Number of write requests responded to by this memory
system.mem_ctrls.bw_read::.cpu.inst            922263                       # Total read bandwidth from this memory (bytes/s)
system.mem_ctrls.bw_read::.cpu.data         233159397                       # Total read bandwidth from this memory (bytes/s)
system.mem_ctrls.bw_read::total             234081660                       # Total read bandwidth from this memory (bytes/s)
system.mem_ctrls.bw_inst_read::.cpu.inst       922263                       # Instruction read bandwidth from this memory (bytes/s)
system.mem_ctrls.bw_inst_read::total           922263                       # Instruction read bandwidth from this memory (bytes/s)
system.mem_ctrls.bw_write::.writebacks      126649047                       # Write bandwidth from this memory (bytes/s)
system.mem_ctrls.bw_write::total            126649047                       # Write bandwidth from this memory (bytes/s)
system.mem_ctrls.bw_total::.writebacks      126649047                       # Total bandwidth to/from this memory (bytes/s)
system.mem_ctrls.bw_total::.cpu.inst           922263                       # Total bandwidth to/from this memory (bytes/s)
system.mem_ctrls.bw_total::.cpu.data        233159397                       # Total bandwidth to/from this memory (bytes/s)
system.mem_ctrls.bw_total::total            360730707                       # Total bandwidth to/from this memory (bytes/s)
system.mem_ctrls.avgPriority_.writebacks::samples    160944.00                       # Average QoS priority value for accepted requests
system.mem_ctrls.avgPriority_.cpu.inst::samples      1172.00                       # Average QoS priority value for accepted requests
system.mem_ctrls.avgPriority_.cpu.data::samples    296265.00                       # Average QoS priority value for accepted requests
system.mem_ctrls.priorityMinLatency      0.000000018750                       # per QoS priority minimum request to response latency (s)
system.mem_ctrls.priorityMaxLatency      0.008882594500                       # per QoS priority maximum request to response latency (s)
system.mem_ctrls.numReadWriteTurnArounds         9853                       # Number of turnarounds from READ to WRITE
system.mem_ctrls.numWriteReadTurnArounds         9853                       # Number of turnarounds from WRITE to READ
system.mem_ctrls.numStayReadState              412066                       # Number of times bus staying in READ state
system.mem_ctrls.numStayWriteState             151273                       # Number of times bus staying in WRITE state
system.mem_ctrls.readReqs                       74367                       # Number of read requests accepted
system.mem_ctrls.writeReqs                      40236                       # Number of write requests accepted
system.mem_ctrls.readBursts                    297468                       # Number of DRAM read bursts, including those serviced by the write queue
system.mem_ctrls.writeBursts                   160944                       # Number of DRAM write bursts, including those merged in the write queue
system.mem_ctrls.servicedByWrQ                     31                       # Number of DRAM read bursts serviced by the write queue
system.mem_ctrls.mergedWrBursts                     0                       # Number of DRAM write bursts merged with an existing one
system.mem_ctrls.neitherReadNorWriteReqs            0                       # Number of requests that are neither read nor write
system.mem_ctrls.perBankRdBursts::0             18912                       # Per bank write bursts
system.mem_ctrls.perBankRdBursts::1             18820                       # Per bank write bursts
system.mem_ctrls.perBankRdBursts::2             18768                       # Per bank write bursts
system.mem_ctrls.perBankRdBursts::3             18480                       # Per bank write bursts
system.mem_ctrls.perBankRdBursts::4             18584                       # Per bank write bursts
system.mem_ctrls.perBankRdBursts::5             18556                       # Per bank write bursts
system.mem_ctrls.perBankRdBursts::6             18472                       # Per bank write bursts
system.mem_ctrls.perBankRdBursts::7             18588                       # Per bank write bursts
system.mem_ctrls.perBankRdBursts::8             18496                       # Per bank write bursts
system.mem_ctrls.perBankRdBursts::9             18496                       # Per bank write bursts
system.mem_ctrls.perBankRdBursts::10            18676                       # Per bank write bursts
system.mem_ctrls.perBankRdBursts::11            18648                       # Per bank write bursts
system.mem_ctrls.perBankRdBursts::12            18612                       # Per bank write bursts
system.mem_ctrls.perBankRdBursts::13            18357                       # Per bank write bursts
system.mem_ctrls.perBankRdBursts::14            18368                       # Per bank write bursts
system.mem_ctrls.perBankRdBursts::15            18604                       # Per bank write bursts
system.mem_ctrls.perBankWrBursts::0             10112                       # Per bank write bursts
system.mem_ctrls.perBankWrBursts::1             10124                       # Per bank write bursts
system.mem_ctrls.perBankWrBursts::2             10184                       # Per bank write bursts
system.mem_ctrls.perBankWrBursts::3             10160                       # Per bank write bursts
system.mem_ctrls.perBankWrBursts::4             10104                       # Per bank write bursts
system.mem_ctrls.perBankWrBursts::5             10076                       # Per bank write bursts
system.mem_ctrls.perBankWrBursts::6             10052                       # Per bank write bursts
system.mem_ctrls.perBankWrBursts::7             10116                       # Per bank write bursts
system.mem_ctrls.perBankWrBursts::8             10028                       # Per bank write bursts
system.mem_ctrls.perBankWrBursts::9              9984                       # Per bank write bursts
system.mem_ctrls.perBankWrBursts::10             9984                       # Per bank write bursts
system.mem_ctrls.perBankWrBursts::11             9988                       # Per bank write bursts
system.mem_ctrls.perBankWrBursts::12             9980                       # Per bank write bursts
system.mem_ctrls.perBankWrBursts::13            10001                       # Per bank write bursts
system.mem_ctrls.perBankWrBursts::14             9992                       # Per bank write bursts
system.mem_ctrls.perBankWrBursts::15            10032                       # Per bank write bursts
system.mem_ctrls.avgRdQLen                       4.11                       # Average read queue length when enqueuing
system.mem_ctrls.avgWrQLen                      27.75                       # Average write queue length when enqueuing
system.mem_ctrls.totQLat                  11606431750                       # Total ticks spent queuing
system.mem_ctrls.totBusLat                 1487185000                       # Total ticks spent in databus transfers
system.mem_ctrls.totMemAccLat             17183375500                       # Total ticks spent from burst creation until serviced by the DRAM
system.mem_ctrls.avgQLat                     39021.48                       # Average queueing delay per DRAM burst
system.mem_ctrls.avgBusLat                    5000.00                       # Average bus latency per DRAM burst
system.mem_ctrls.avgMemAccLat                57771.48                       # Average memory access latency per DRAM burst
system.mem_ctrls.numRdRetry                         0                       # Number of times read queue was full causing retry
system.mem_ctrls.numWrRetry                         0                       # Number of times write queue was full causing retry
system.mem_ctrls.readRowHits                   267863                       # Number of row buffer hits during reads
system.mem_ctrls.writeRowHits                  144933                       # Number of row buffer hits during writes
system.mem_ctrls.readRowHitRate                 90.06                       # Row buffer hit rate for reads
system.mem_ctrls.writeRowHitRate                90.05                       # Row buffer hit rate for writes
system.mem_ctrls.readPktSize::0                     0                       # Read request sizes (log2)
system.mem_ctrls.readPktSize::1                     0                       # Read request sizes (log2)
system.mem_ctrls.readPktSize::2                     0                       # Read request sizes (log2)
system.mem_ctrls.readPktSize::3                     0                       # Read request sizes (log2)
system.mem_ctrls.readPktSize::4                     0                       # Read request sizes (log2)
system.mem_ctrls.readPktSize::5                     0                       # Read request sizes (log2)
system.mem_ctrls.readPktSize::6                297468                       # Read request sizes (log2)
system.mem_ctrls.writePktSize::0                    0                       # Write request sizes (log2)
system.mem_ctrls.writePktSize::1                    0                       # Write request sizes (log2)
system.mem_ctrls.writePktSize::2                    0                       # Write request sizes (log2)
system.mem_ctrls.writePktSize::3                    0                       # Write request sizes (log2)
system.mem_ctrls.writePktSize::4                    0                       # Write request sizes (log2)
system.mem_ctrls.writePktSize::5                    0                       # Write request sizes (log2)
system.mem_ctrls.writePktSize::6               160944                       # Write request sizes (log2)
system.mem_ctrls.rdQLenPdf::0                   58576                       # What read queue length does an incoming req see
system.mem_ctrls.rdQLenPdf::1                   58650                       # What read queue length does an incoming req see
system.mem_ctrls.rdQLenPdf::2                   58748                       # What read queue length does an incoming req see
system.mem_ctrls.rdQLenPdf::3                   59834                       # What read queue length does an incoming req see
system.mem_ctrls.rdQLenPdf::4                   15781                       # What read queue length does an incoming req see
system.mem_ctrls.rdQLenPdf::5                   15706                       # What read queue length does an incoming req see
system.mem_ctrls.rdQLenPdf::6                   15608                       # What read queue length does an incoming req see
system.mem_ctrls.rdQLenPdf::7                   14522                       # What read queue length does an incoming req see
system.mem_ctrls.rdQLenPdf::8                       3                       # What read queue length does an incoming req see
system.mem_ctrls.rdQLenPdf::9                       3                       # What read queue length does an incoming req see
system.mem_ctrls.rdQLenPdf::10                      3                       # What read queue length does an incoming req see
system.mem_ctrls.rdQLenPdf::11                      3                       # What read queue length does an incoming req see
system.mem_ctrls.rdQLenPdf::12                      0                       # What read queue length does an incoming req see
system.mem_ctrls.rdQLenPdf::13                      0                       # What read queue length does an incoming req see
system.mem_ctrls.rdQLenPdf::14                      0                       # What read queue length does an incoming req see
system.mem_ctrls.rdQLenPdf::15                      0                       # What read queue length does an incoming req see
system.mem_ctrls.rdQLenPdf::16                      0                       # What read queue length does an incoming req see
system.mem_ctrls.rdQLenPdf::17                      0                       # What read queue length does an incoming req see
system.mem_ctrls.rdQLenPdf::18                      0                       # What read queue length does an incoming req see
system.mem_ctrls.rdQLenPdf::19                      0                       # What read queue length does an incoming req see
system.mem_ctrls.rdQLenPdf::20                      0                       # What read queue length does an incoming req see
system.mem_ctrls.rdQLenPdf::21                      0                       # What read queue length does an incoming req see
system.mem_ctrls.rdQLenPdf::22                      0                       # What read queue length does an incoming req see
system.mem_ctrls.rdQLenPdf::23                      0                       # What read queue length does an incoming req see
system.mem_ctrls.rdQLenPdf::24                      0                       # What read queue length does an incoming req see
system.mem_ctrls.rdQLenPdf::25                      0                       # What read queue length does an incoming req see
system.mem_ctrls.rdQLenPdf::26                      0                       # What read queue length does an incoming req see
system.mem_ctrls.rdQLenPdf::27                      0                       # What read queue length does an incoming req see
system.mem_ctrls.rdQLenPdf::28                      0                       # What read queue length does an incoming req see
system.mem_ctrls.rdQLenPdf::29                      0                       # What read queue length does an incoming req see
system.mem_ctrls.rdQLenPdf::30                      0                       # What read queue length does an incoming req see
system.mem_ctrls.rdQLenPdf::31                      0                       # What read queue length does an incoming req see
system.mem_ctrls.wrQLenPdf::0                       1                       # What write queue length does an incoming req see
system.mem_ctrls.wrQLenPdf::1                       1                       # What write queue length does an incoming req see
system.mem_ctrls.wrQLenPdf::2                       1                       # What write queue length does an incoming req see
system.mem_ctrls.wrQLenPdf::3                       1                       # What write queue length does an incoming req see
system.mem_ctrls.wrQLenPdf::4                       1                       # What write queue length does an incoming req see
system.mem_ctrls.wrQLenPdf::5                       1                       # What write queue length does an incoming req see
system.mem_ctrls.wrQLenPdf::6                       1                       # What write queue length does an incoming req see
system.mem_ctrls.wrQLenPdf::7                       1                       # What write queue length does an incoming req see
system.mem_ctrls.wrQLenPdf::8                       1                       # What write queue length does an incoming req see
system.mem_ctrls.wrQLenPdf::9                       1                       # What write queue length does an incoming req see
system.mem_ctrls.wrQLenPdf::10                      1                       # What write queue length does an incoming req see
system.mem_ctrls.wrQLenPdf::11                      1                       # What write queue length does an incoming req see
system.mem_ctrls.wrQLenPdf::12                      1                       # What write queue length does an incoming req see
system.mem_ctrls.wrQLenPdf::13                      1                       # What write queue length does an incoming req see
system.mem_ctrls.wrQLenPdf::14                      1                       # What write queue length does an incoming req see
system.mem_ctrls.wrQLenPdf::15                    689                       # What write queue length does an incoming req see
system.mem_ctrls.wrQLenPdf::16                    707                       # What write queue length does an incoming req see
system.mem_ctrls.wrQLenPdf::17                   1544                       # What write queue length does an incoming req see
system.mem_ctrls.wrQLenPdf::18                   2387                       # What write queue length does an incoming req see
system.mem_ctrls.wrQLenPdf::19                   4226                       # What write queue length does an incoming req see
system.mem_ctrls.wrQLenPdf::20                   5611                       # What write queue length does an incoming req see
system.mem_ctrls.wrQLenPdf::21                   6865                       # What write queue length does an incoming req see
system.mem_ctrls.wrQLenPdf::22                   7570                       # What write queue length does an incoming req see
system.mem_ctrls.wrQLenPdf::23                   9369                       # What write queue length does an incoming req see
system.mem_ctrls.wrQLenPdf::24                  10534                       # What write queue length does an incoming req see
system.mem_ctrls.wrQLenPdf::25                  10873                       # What write queue length does an incoming req see
system.mem_ctrls.wrQLenPdf::26                  11508                       # What write queue length does an incoming req see
system.mem_ctrls.wrQLenPdf::27                  11732                       # What write queue length does an incoming req see
system.mem_ctrls.wrQLenPdf::28                  12760                       # What write queue length does an incoming req see
system.mem_ctrls.wrQLenPdf::29                  12815                       # What write queue length does an incoming req see
system.mem_ctrls.wrQLenPdf::30                  12186                       # What write queue length does an incoming req see
system.mem_ctrls.wrQLenPdf::31                  11753                       # What write queue length does an incoming req see
system.mem_ctrls.wrQLenPdf::32                  10571                       # What write queue length does an incoming req see
system.mem_ctrls.wrQLenPdf::33                   8097                       # What write queue length does an incoming req see
system.mem_ctrls.wrQLenPdf::34                   6554                       # What write queue length does an incoming req see
system.mem_ctrls.wrQLenPdf::35                   2450                       # What write queue length does an incoming req see
system.mem_ctrls.wrQLenPdf::36                     49                       # What write queue length does an incoming req see
system.mem_ctrls.wrQLenPdf::37                     38                       # What write queue length does an incoming req see
system.mem_ctrls.wrQLenPdf::38                     27                       # What write queue length does an incoming req see
system.mem_ctrls.wrQLenPdf::39                     14                       # What write queue length does an incoming req see
system.mem_ctrls.wrQLenPdf::40                      0                       # What write queue length does an incoming req see
system.mem_ctrls.wrQLenPdf::41                      0                       # What write queue length does an incoming req see
system.mem_ctrls.wrQLenPdf::42                      0                       # What write queue length does an incoming req see
system.mem_ctrls.wrQLenPdf::43                      0                       # What write queue length does an incoming req see
system.mem_ctrls.wrQLenPdf::44                      0                       # What write queue length does an incoming req see
system.mem_ctrls.wrQLenPdf::45                      0                       # What write queue length does an incoming req see
system.mem_ctrls.wrQLenPdf::46                      0                       # What write queue length does an incoming req see
system.mem_ctrls.wrQLenPdf::47                      0                       # What write queue length does an incoming req see
system.mem_ctrls.wrQLenPdf::48                      0                       # What write queue length does an incoming req see
system.mem_ctrls.wrQLenPdf::49                      0                       # What write queue length does an incoming req see
system.mem_ctrls.wrQLenPdf::50                      0                       # What write queue length does an incoming req see
system.mem_ctrls.wrQLenPdf::51                      0                       # What write queue length does an incoming req see
system.mem_ctrls.wrQLenPdf::52                      0                       # What write queue length does an incoming req see
system.mem_ctrls.wrQLenPdf::53                      0                       # What write queue length does an incoming req see
system.mem_ctrls.wrQLenPdf::54                      0                       # What write queue length does an incoming req see
system.mem_ctrls.wrQLenPdf::55                      0                       # What write queue length does an incoming req see
system.mem_ctrls.wrQLenPdf::56                      0                       # What write queue length does an incoming req see
system.mem_ctrls.wrQLenPdf::57                      0                       # What write queue length does an incoming req see
system.mem_ctrls.wrQLenPdf::58                      0                       # What write queue length does an incoming req see
system.mem_ctrls.wrQLenPdf::59                      0                       # What write queue length does an incoming req see
system.mem_ctrls.wrQLenPdf::60                      0                       # What write queue length does an incoming req see
system.mem_ctrls.wrQLenPdf::61                      0                       # What write queue length does an incoming req see
system.mem_ctrls.wrQLenPdf::62                      0                       # What write queue length does an incoming req see
system.mem_ctrls.wrQLenPdf::63                      0                       # What write queue length does an incoming req see
system.mem_ctrls.bytesPerActivate::samples        45558                       # Bytes accessed per row activation
system.mem_ctrls.bytesPerActivate::mean    643.896923                       # Bytes accessed per row activation
system.mem_ctrls.bytesPerActivate::gmean   532.291297                       # Bytes accessed per row activation
system.mem_ctrls.bytesPerActivate::stdev   344.836250                       # Bytes accessed per row activation
system.mem_ctrls.bytesPerActivate::0-127          727      1.60%      1.60% # Bytes accessed per row activation
system.mem_ctrls.bytesPerActivate::128-255          829      1.82%      3.42% # Bytes accessed per row activation
system.mem_ctrls.bytesPerActivate::256-383        14726     32.32%     35.74% # Bytes accessed per row activation
system.mem_ctrls.bytesPerActivate::384-511         1099      2.41%     38.15% # Bytes accessed per row activation
system.mem_ctrls.bytesPerActivate::512-639         5475     12.02%     50.17% # Bytes accessed per row activation
system.mem_ctrls.bytesPerActivate::640-767         1057      2.32%     52.49% # Bytes accessed per row activation
system.mem_ctrls.bytesPerActivate::768-895         3368      7.39%     59.88% # Bytes accessed per row activation
system.mem_ctrls.bytesPerActivate::896-1023          509      1.12%     61.00% # Bytes accessed per row activation
system.mem_ctrls.bytesPerActivate::1024-1151        17768     39.00%    100.00% # Bytes accessed per row activation
system.mem_ctrls.bytesPerActivate::total        45558                       # Bytes accessed per row activation
system.mem_ctrls.rdPerTurnAround::samples         9853                       # Reads before turning the bus around for writes
system.mem_ctrls.rdPerTurnAround::mean      30.186644                       # Reads before turning the bus around for writes
system.mem_ctrls.rdPerTurnAround::gmean     21.858363                       # Reads before turning the bus around for writes
system.mem_ctrls.rdPerTurnAround::stdev    177.604428                       # Reads before turning the bus around for writes
system.mem_ctrls.rdPerTurnAround::0-1023         9851     99.98%     99.98% # Reads before turning the bus around for writes
system.mem_ctrls.rdPerTurnAround::1024-2047            1      0.01%     99.99% # Reads before turning the bus around for writes
system.mem_ctrls.rdPerTurnAround::16384-17407            1      0.01%    100.00% # Reads before turning the bus around for writes
system.mem_ctrls.rdPerTurnAround::total          9853                       # Reads before turning the bus around for writes
system.mem_ctrls.wrPerTurnAround::samples         9853                       # Writes before turning the bus around for reads
system.mem_ctrls.wrPerTurnAround::mean      16.331777                       # Writes before turning the bus around for reads
system.mem_ctrls.wrPerTurnAround::gmean     16.297388                       # Writes before turning the bus around for reads
system.mem_ctrls.wrPerTurnAround::stdev      1.134769                       # Writes before turning the bus around for reads
system.mem_ctrls.wrPerTurnAround::16             9055     91.90%     91.90% # Writes before turning the bus around for reads
system.mem_ctrls.wrPerTurnAround::17                3      0.03%     91.93% # Writes before turning the bus around for reads
system.mem_ctrls.wrPerTurnAround::18               16      0.16%     92.09% # Writes before turning the bus around for reads
[...]
system.cpu.icache.ReadReq_avg_miss_latency::.cpu.inst 71232.505643                       # average ReadReq miss latency
system.cpu.icache.ReadReq_avg_miss_latency::total 71232.505643                       # average ReadReq miss latency
system.cpu.icache.ReadReq_mshr_misses::.cpu.inst          443                       # number of ReadReq MSHR misses
system.cpu.icache.ReadReq_mshr_misses::total          443                       # number of ReadReq MSHR misses
system.cpu.icache.ReadReq_mshr_miss_latency::.cpu.inst     31113000                       # number of ReadReq MSHR miss cycles
system.cpu.icache.ReadReq_mshr_miss_latency::total     31113000                       # number of ReadReq MSHR miss cycles
system.cpu.icache.ReadReq_mshr_miss_rate::.cpu.inst     0.000063                       # mshr miss rate for ReadReq accesses
system.cpu.icache.ReadReq_mshr_miss_rate::total     0.000063                       # mshr miss rate for ReadReq accesses
system.cpu.icache.ReadReq_avg_mshr_miss_latency::.cpu.inst 70232.505643                       # average ReadReq mshr miss latency
system.cpu.icache.ReadReq_avg_mshr_miss_latency::total 70232.505643                       # average ReadReq mshr miss latency
system.cpu.icache.tags.pwrStateResidencyTicks::UNDEFINED  81330387000                       # Cumulative time (in ticks) in various power states
system.cpu.icache.tags.tagsinuse           112.567309                       # Cycle average of tags in use
system.cpu.icache.tags.total_refs             7019497                       # Total number of references to valid blocks.
system.cpu.icache.tags.sampled_refs               443                       # Sample count of references to valid blocks.
system.cpu.icache.tags.avg_refs          15845.365688                       # Average number of references to valid blocks.
system.cpu.icache.tags.warmup_cycle            102500                       # Cycle when the warmup percentage was hit.
system.cpu.icache.tags.occ_blocks::.cpu.inst   112.567309                       # Average occupied blocks per requestor
system.cpu.icache.tags.occ_percent::.cpu.inst     0.879432                       # Average percentage of cache occupancy
system.cpu.icache.tags.occ_percent::total     0.879432                       # Average percentage of cache occupancy
system.cpu.icache.tags.occ_task_id_blocks::1024          122                       # Occupied blocks per task id
system.cpu.icache.tags.age_task_id_blocks_1024::3           24                       # Occupied blocks per task id
system.cpu.icache.tags.age_task_id_blocks_1024::4           98                       # Occupied blocks per task id
system.cpu.icache.tags.occ_task_id_percent::1024     0.953125                       # Percentage of cache occupancy per task id
system.cpu.icache.tags.tag_accesses          14039437                       # Number of tag accesses
system.cpu.icache.tags.data_accesses         14039437                       # Number of data accesses
system.cpu.dtb.walker.pwrStateResidencyTicks::UNDEFINED  81330387000                       # Cumulative time (in ticks) in various power states
system.cpu.dtb.stage2_mmu.stage2_tlb.walker.pwrStateResidencyTicks::UNDEFINED  81330387000                       # Cumulative time (in ticks) in various power states
system.cpu.dcache.pwrStateResidencyTicks::UNDEFINED  81330387000                       # Cumulative time (in ticks) in various power states
system.cpu.dcache.demand_hits::.cpu.data     51365276                       # number of demand (read+write) hits
system.cpu.dcache.demand_hits::total         51365276                       # number of demand (read+write) hits
system.cpu.dcache.overall_hits::.cpu.data     51366540                       # number of overall hits
system.cpu.dcache.overall_hits::total        51366540                       # number of overall hits
system.cpu.dcache.demand_misses::.cpu.data       683442                       # number of demand (read+write) misses
system.cpu.dcache.demand_misses::total         683442                       # number of demand (read+write) misses
system.cpu.dcache.overall_misses::.cpu.data       690599                       # number of overall misses
system.cpu.dcache.overall_misses::total        690599                       # number of overall misses
system.cpu.dcache.demand_miss_latency::.cpu.data  18298952500                       # number of demand (read+write) miss cycles
system.cpu.dcache.demand_miss_latency::total  18298952500                       # number of demand (read+write) miss cycles
system.cpu.dcache.overall_miss_latency::.cpu.data  18298952500                       # number of overall miss cycles
system.cpu.dcache.overall_miss_latency::total  18298952500                       # number of overall miss cycles
system.cpu.dcache.demand_accesses::.cpu.data     52048718                       # number of demand (read+write) accesses
system.cpu.dcache.demand_accesses::total     52048718                       # number of demand (read+write) accesses
system.cpu.dcache.overall_accesses::.cpu.data     52057139                       # number of overall (read+write) accesses
system.cpu.dcache.overall_accesses::total     52057139                       # number of overall (read+write) accesses
system.cpu.dcache.demand_miss_rate::.cpu.data     0.013131                       # miss rate for demand accesses
system.cpu.dcache.demand_miss_rate::total     0.013131                       # miss rate for demand accesses
system.cpu.dcache.overall_miss_rate::.cpu.data     0.013266                       # miss rate for overall accesses
system.cpu.dcache.overall_miss_rate::total     0.013266                       # miss rate for overall accesses
system.cpu.dcache.demand_avg_miss_latency::.cpu.data 26774.697048                       # average overall miss latency
system.cpu.dcache.demand_avg_miss_latency::total 26774.697048                       # average overall miss latency
system.cpu.dcache.overall_avg_miss_latency::.cpu.data 26497.218357                       # average overall miss latency
system.cpu.dcache.overall_avg_miss_latency::total 26497.218357                       # average overall miss latency
system.cpu.dcache.blocked_cycles::no_mshrs            0                       # number of cycles access was blocked
system.cpu.dcache.blocked_cycles::no_targets            0                       # number of cycles access was blocked
system.cpu.dcache.blocked::no_mshrs                 0                       # number of cycles access was blocked
system.cpu.dcache.blocked::no_targets               0                       # number of cycles access was blocked
system.cpu.dcache.avg_blocked_cycles::no_mshrs          nan                       # average number of cycles each access was blocked
system.cpu.dcache.avg_blocked_cycles::no_targets          nan                       # average number of cycles each access was blocked
system.cpu.dcache.writebacks::.writebacks       645065                       # number of writebacks
system.cpu.dcache.writebacks::total            645065                       # number of writebacks
system.cpu.dcache.demand_mshr_hits::.cpu.data        18414                       # number of demand (read+write) MSHR hits
system.cpu.dcache.demand_mshr_hits::total        18414                       # number of demand (read+write) MSHR hits
system.cpu.dcache.overall_mshr_hits::.cpu.data        18414                       # number of overall MSHR hits
system.cpu.dcache.overall_mshr_hits::total        18414                       # number of overall MSHR hits
system.cpu.dcache.demand_mshr_misses::.cpu.data       665028                       # number of demand (read+write) MSHR misses
system.cpu.dcache.demand_mshr_misses::total       665028                       # number of demand (read+write) MSHR misses
system.cpu.dcache.overall_mshr_misses::.cpu.data       667008                       # number of overall MSHR misses
system.cpu.dcache.overall_mshr_misses::total       667008                       # number of overall MSHR misses
system.cpu.dcache.demand_mshr_miss_latency::.cpu.data  16036615000                       # number of demand (read+write) MSHR miss cycles
system.cpu.dcache.demand_mshr_miss_latency::total  16036615000                       # number of demand (read+write) MSHR miss cycles
system.cpu.dcache.overall_mshr_miss_latency::.cpu.data  16214316000                       # number of overall MSHR miss cycles
system.cpu.dcache.overall_mshr_miss_latency::total  16214316000                       # number of overall MSHR miss cycles
system.cpu.dcache.demand_mshr_miss_rate::.cpu.data     0.012777                       # mshr miss rate for demand accesses
system.cpu.dcache.demand_mshr_miss_rate::total     0.012777                       # mshr miss rate for demand accesses
system.cpu.dcache.overall_mshr_miss_rate::.cpu.data     0.012813                       # mshr miss rate for overall accesses
system.cpu.dcache.overall_mshr_miss_rate::total     0.012813                       # mshr miss rate for overall accesses
system.cpu.dcache.demand_avg_mshr_miss_latency::.cpu.data 24114.195192                       # average overall mshr miss latency
system.cpu.dcache.demand_avg_mshr_miss_latency::total 24114.195192                       # average overall mshr miss latency
system.cpu.dcache.overall_avg_mshr_miss_latency::.cpu.data 24309.027778                       # average overall mshr miss latency
system.cpu.dcache.overall_avg_mshr_miss_latency::total 24309.027778                       # average overall mshr miss latency
system.cpu.dcache.replacements                 666751                       # number of replacements
system.cpu.dcache.ReadReq_hits::.cpu.data     40743085                       # number of ReadReq hits
system.cpu.dcache.ReadReq_hits::total        40743085                       # number of ReadReq hits
system.cpu.dcache.ReadReq_misses::.cpu.data       355547                       # number of ReadReq misses
system.cpu.dcache.ReadReq_misses::total        355547                       # number of ReadReq misses
system.cpu.dcache.ReadReq_miss_latency::.cpu.data   6491270000                       # number of ReadReq miss cycles
system.cpu.dcache.ReadReq_miss_latency::total   6491270000                       # number of ReadReq miss cycles
system.cpu.dcache.ReadReq_accesses::.cpu.data     41098632                       # number of ReadReq accesses(hits+misses)
system.cpu.dcache.ReadReq_accesses::total     41098632                       # number of ReadReq accesses(hits+misses)
system.cpu.dcache.ReadReq_miss_rate::.cpu.data     0.008651                       # miss rate for ReadReq accesses
system.cpu.dcache.ReadReq_miss_rate::total     0.008651                       # miss rate for ReadReq accesses
system.cpu.dcache.ReadReq_avg_miss_latency::.cpu.data 18257.136187                       # average ReadReq miss latency
system.cpu.dcache.ReadReq_avg_miss_latency::total 18257.136187                       # average ReadReq miss latency
system.cpu.dcache.ReadReq_mshr_hits::.cpu.data         1959                       # number of ReadReq MSHR hits
system.cpu.dcache.ReadReq_mshr_hits::total         1959                       # number of ReadReq MSHR hits
system.cpu.dcache.ReadReq_mshr_misses::.cpu.data       353588                       # number of ReadReq MSHR misses
system.cpu.dcache.ReadReq_mshr_misses::total       353588                       # number of ReadReq MSHR misses
system.cpu.dcache.ReadReq_mshr_miss_latency::.cpu.data   5984435500                       # number of ReadReq MSHR miss cycles
system.cpu.dcache.ReadReq_mshr_miss_latency::total   5984435500                       # number of ReadReq MSHR miss cycles
system.cpu.dcache.ReadReq_mshr_miss_rate::.cpu.data     0.008603                       # mshr miss rate for ReadReq accesses
system.cpu.dcache.ReadReq_mshr_miss_rate::total     0.008603                       # mshr miss rate for ReadReq accesses
system.cpu.dcache.ReadReq_avg_mshr_miss_latency::.cpu.data 16924.882915                       # average ReadReq mshr miss latency
system.cpu.dcache.ReadReq_avg_mshr_miss_latency::total 16924.882915                       # average ReadReq mshr miss latency
system.cpu.dcache.WriteReq_hits::.cpu.data     10622191                       # number of WriteReq hits
system.cpu.dcache.WriteReq_hits::total       10622191                       # number of WriteReq hits
system.cpu.dcache.WriteReq_misses::.cpu.data       327895                       # number of WriteReq misses
system.cpu.dcache.WriteReq_misses::total       327895                       # number of WriteReq misses
system.cpu.dcache.WriteReq_miss_latency::.cpu.data  11807682500                       # number of WriteReq miss cycles
system.cpu.dcache.WriteReq_miss_latency::total  11807682500                       # number of WriteReq miss cycles
system.cpu.dcache.WriteReq_accesses::.cpu.data     10950086                       # number of WriteReq accesses(hits+misses)
system.cpu.dcache.WriteReq_accesses::total     10950086                       # number of WriteReq accesses(hits+misses)
system.cpu.dcache.WriteReq_miss_rate::.cpu.data     0.029945                       # miss rate for WriteReq accesses
system.cpu.dcache.WriteReq_miss_rate::total     0.029945                       # miss rate for WriteReq accesses
system.cpu.dcache.WriteReq_avg_miss_latency::.cpu.data 36010.559783                       # average WriteReq miss latency
system.cpu.dcache.WriteReq_avg_miss_latency::total 36010.559783                       # average WriteReq miss latency
system.cpu.dcache.WriteReq_mshr_hits::.cpu.data        16455                       # number of WriteReq MSHR hits
system.cpu.dcache.WriteReq_mshr_hits::total        16455                       # number of WriteReq MSHR hits
system.cpu.dcache.WriteReq_mshr_misses::.cpu.data       311440                       # number of WriteReq MSHR misses
system.cpu.dcache.WriteReq_mshr_misses::total       311440                       # number of WriteReq MSHR misses
system.cpu.dcache.WriteReq_mshr_miss_latency::.cpu.data  10052179500                       # number of WriteReq MSHR miss cycles
system.cpu.dcache.WriteReq_mshr_miss_latency::total  10052179500                       # number of WriteReq MSHR miss cycles
system.cpu.dcache.WriteReq_mshr_miss_rate::.cpu.data     0.028442                       # mshr miss rate for WriteReq accesses
system.cpu.dcache.WriteReq_mshr_miss_rate::total     0.028442                       # mshr miss rate for WriteReq accesses
system.cpu.dcache.WriteReq_avg_mshr_miss_latency::.cpu.data 32276.456139                       # average WriteReq mshr miss latency
system.cpu.dcache.WriteReq_avg_mshr_miss_latency::total 32276.456139                       # average WriteReq mshr miss latency
system.cpu.dcache.SoftPFReq_hits::.cpu.data         1264                       # number of SoftPFReq hits
system.cpu.dcache.SoftPFReq_hits::total          1264                       # number of SoftPFReq hits
system.cpu.dcache.SoftPFReq_misses::.cpu.data         7157                       # number of SoftPFReq misses
system.cpu.dcache.SoftPFReq_misses::total         7157                       # number of SoftPFReq misses
system.cpu.dcache.SoftPFReq_accesses::.cpu.data         8421                       # number of SoftPFReq accesses(hits+misses)
system.cpu.dcache.SoftPFReq_accesses::total         8421                       # number of SoftPFReq accesses(hits+misses)
system.cpu.dcache.SoftPFReq_miss_rate::.cpu.data     0.849899                       # miss rate for SoftPFReq accesses
system.cpu.dcache.SoftPFReq_miss_rate::total     0.849899                       # miss rate for SoftPFReq accesses
system.cpu.dcache.SoftPFReq_mshr_misses::.cpu.data         1980                       # number of SoftPFReq MSHR misses
system.cpu.dcache.SoftPFReq_mshr_misses::total         1980                       # number of SoftPFReq MSHR misses
system.cpu.dcache.SoftPFReq_mshr_miss_latency::.cpu.data    177701000                       # number of SoftPFReq MSHR miss cycles
system.cpu.dcache.SoftPFReq_mshr_miss_latency::total    177701000                       # number of SoftPFReq MSHR miss cycles
system.cpu.dcache.SoftPFReq_mshr_miss_rate::.cpu.data     0.235126                       # mshr miss rate for SoftPFReq accesses
system.cpu.dcache.SoftPFReq_mshr_miss_rate::total     0.235126                       # mshr miss rate for SoftPFReq accesses
system.cpu.dcache.SoftPFReq_avg_mshr_miss_latency::.cpu.data 89747.979798                       # average SoftPFReq mshr miss latency
system.cpu.dcache.SoftPFReq_avg_mshr_miss_latency::total 89747.979798                       # average SoftPFReq mshr miss latency
system.cpu.dcache.LoadLockedReq_hits::.cpu.data           38                       # number of LoadLockedReq hits
system.cpu.dcache.LoadLockedReq_hits::total           38                       # number of LoadLockedReq hits
system.cpu.dcache.LoadLockedReq_accesses::.cpu.data           38                       # number of LoadLockedReq accesses(hits+misses)
system.cpu.dcache.LoadLockedReq_accesses::total           38                       # number of LoadLockedReq accesses(hits+misses)
system.cpu.dcache.StoreCondReq_hits::.cpu.data           38                       # number of StoreCondReq hits
system.cpu.dcache.StoreCondReq_hits::total           38                       # number of StoreCondReq hits
system.cpu.dcache.StoreCondReq_accesses::.cpu.data           38                       # number of StoreCondReq accesses(hits+misses)
system.cpu.dcache.StoreCondReq_accesses::total           38                       # number of StoreCondReq accesses(hits+misses)
system.cpu.dcache.tags.pwrStateResidencyTicks::UNDEFINED  81330387000                       # Cumulative time (in ticks) in various power states
system.cpu.dcache.tags.tagsinuse           251.945002                       # Cycle average of tags in use
system.cpu.dcache.tags.total_refs            52033623                       # Total number of references to valid blocks.
system.cpu.dcache.tags.sampled_refs            667007                       # Sample count of references to valid blocks.
system.cpu.dcache.tags.avg_refs             78.010610                       # Average number of references to valid blocks.
system.cpu.dcache.tags.warmup_cycle            210500                       # Cycle when the warmup percentage was hit.
system.cpu.dcache.tags.occ_blocks::.cpu.data   251.945002                       # Average occupied blocks per requestor
system.cpu.dcache.tags.occ_percent::.cpu.data     0.984160                       # Average percentage of cache occupancy
system.cpu.dcache.tags.occ_percent::total     0.984160                       # Average percentage of cache occupancy
system.cpu.dcache.tags.occ_task_id_blocks::1024          256                       # Occupied blocks per task id
system.cpu.dcache.tags.age_task_id_blocks_1024::0          211                       # Occupied blocks per task id
system.cpu.dcache.tags.age_task_id_blocks_1024::1           44                       # Occupied blocks per task id
system.cpu.dcache.tags.age_task_id_blocks_1024::2            1                       # Occupied blocks per task id
system.cpu.dcache.tags.occ_task_id_percent::1024            1                       # Percentage of cache occupancy per task id
system.cpu.dcache.tags.tag_accesses         417124727                       # Number of tag accesses
system.cpu.dcache.tags.data_accesses        417124727                       # Number of data accesses
system.cpu.itb.walker.pwrStateResidencyTicks::UNDEFINED  81330387000                       # Cumulative time (in ticks) in various power states
system.cpu.itb.stage2_mmu.stage2_tlb.walker.pwrStateResidencyTicks::UNDEFINED  81330387000                       # Cumulative time (in ticks) in various power states

---------- End Simulation Statistics   ----------
