
---------- Begin Simulation Statistics ----------
final_tick                                82444439000                       # Number of ticks from beginning of simulation (restored from checkpoints and never reset)
host_inst_rate                                 452776                       # Simulator instruction rate (inst/s)
host_mem_usage                                 681244                       # Number of bytes of host memory used
host_op_rate                                   453665                       # Simulator op (including micro ops) rate (op/s)
host_seconds                                   220.86                       # Real time elapsed on the host
host_tick_rate                              373288184                       # Simulator tick rate (ticks/s)
sim_freq                                 1000000000000                       # Frequency of simulated ticks
sim_insts                                   100000001                       # Number of instructions simulated
sim_ops                                     100196363                       # Number of ops (including micro ops) simulated
sim_seconds                                  0.082444                       # Number of seconds simulated
sim_ticks                                 82444439000                       # Number of ticks simulated
system.cpu.branchPred.BTBCorrect                    0                       # Number of correct BTB predictions (this stat may not work properly.
system.cpu.branchPred.BTBHitPct             99.615229                       # BTB Hit Percentage
system.cpu.branchPred.BTBHits                 2096271                       # Number of BTB hits
system.cpu.branchPred.BTBLookups              2104368                       # Number of BTB lookups
system.cpu.branchPred.RASInCorrect                  5                       # Number of incorrect RAS predictions.
system.cpu.branchPred.condIncorrect             81379                       # Number of conditional branches incorrect
system.cpu.branchPred.condPredicted           3728787                       # Number of conditional branches predicted
system.cpu.branchPred.indirectHits                301                       # Number of indirect target hits.
system.cpu.branchPred.indirectLookups            1022                       # Number of indirect predictor lookups.
system.cpu.branchPred.indirectMisses              721                       # Number of indirect misses.
system.cpu.branchPred.lookups                 4479211                       # Number of BP lookups
system.cpu.branchPred.usedRAS                   65361                       # Number of times the RAS was used to get a target.
system.cpu.branchPredindirectMispredicted          163                       # Number of mispredicted indirect branches.
system.cpu.committedInsts                   100000001                       # Number of instructions committed
system.cpu.committedOps                     100196363                       # Number of ops (including micro ops) committed
system.cpu.cpi                               1.648889                       # CPI: cycles per instruction
system.cpu.discardedOps                        190821                       # Number of ops (including micro ops) which were discarded before commit
system.cpu.dtb.accesses                             0                       # DTB accesses
system.cpu.dtb.align_faults                         0                       # Number of TLB faults due to alignment restrictions
system.cpu.dtb.domain_faults                        0                       # Number of TLB faults due to domain restrictions
system.cpu.dtb.flush_entries                        0                       # Number of entries that have been flushed from TLB
system.cpu.dtb.flush_tlb                            0                       # Number of times complete TLB was flushed
system.cpu.dtb.flush_tlb_asid                       0                       # Number of times TLB was flushed by ASID
system.cpu.dtb.flush_tlb_mva                        0                       # Number of times TLB was flushed by MVA
system.cpu.dtb.flush_tlb_mva_asid                   0                       # Number of times TLB was flushed by MVA & ASID
system.cpu.dtb.hits                                 0                       # DTB hits
system.cpu.dtb.inst_accesses                        0                       # ITB inst accesses
system.cpu.dtb.inst_hits                            0                       # ITB inst hits
system.cpu.dtb.inst_misses                          0                       # ITB inst misses
system.cpu.dtb.misses                               0                       # DTB misses
system.cpu.dtb.perms_faults                         0                       # Number of TLB faults due to permissions restrictions
system.cpu.dtb.prefetch_faults                      0                       # Number of TLB faults due to prefetch
system.cpu.dtb.read_accesses                        0                       # DTB read accesses
system.cpu.dtb.read_hits                            0                       # DTB read hits
system.cpu.dtb.read_misses                          0                       # DTB read misses
system.cpu.dtb.stage2_mmu.stage2_tlb.accesses            0                       # DTB accesses
system.cpu.dtb.stage2_mmu.stage2_tlb.align_faults            0                       # Number of TLB faults due to alignment restrictions
system.cpu.dtb.stage2_mmu.stage2_tlb.domain_faults            0                       # Number of TLB faults due to domain restrictions
system.cpu.dtb.stage2_mmu.stage2_tlb.flush_entries            0                       # Number of entries that have been flushed from TLB
system.cpu.dtb.stage2_mmu.stage2_tlb.flush_tlb            0                       # Number of times complete TLB was flushed
system.cpu.dtb.stage2_mmu.stage2_tlb.flush_tlb_asid            0                       # Number of times TLB was flushed by ASID
system.cpu.dtb.stage2_mmu.stage2_tlb.flush_tlb_mva            0                       # Number of times TLB was flushed by MVA
system.cpu.dtb.stage2_mmu.stage2_tlb.flush_tlb_mva_asid            0                       # Number of times TLB was flushed by MVA & ASID
system.cpu.dtb.stage2_mmu.stage2_tlb.hits            0                       # DTB hits
system.cpu.dtb.stage2_mmu.stage2_tlb.inst_accesses            0                       # ITB inst accesses
system.cpu.dtb.stage2_mmu.stage2_tlb.inst_hits            0                       # ITB inst hits
system.cpu.dtb.stage2_mmu.stage2_tlb.inst_misses            0                       # ITB inst misses
system.cpu.dtb.stage2_mmu.stage2_tlb.misses            0                       # DTB misses
system.cpu.dtb.stage2_mmu.stage2_tlb.perms_faults            0                       # Number of TLB faults due to permissions restrictions
system.cpu.dtb.stage2_mmu.stage2_tlb.prefetch_faults            0                       # Number of TLB faults due to prefetch
system.cpu.dtb.stage2_mmu.stage2_tlb.read_accesses            0                       # DTB read accesses
system.cpu.dtb.stage2_mmu.stage2_tlb.read_hits            0                       # DTB read hits
system.cpu.dtb.stage2_mmu.stage2_tlb.read_misses            0                       # DTB read misses
system.cpu.dtb.stage2_mmu.stage2_tlb.walker.walkRequestOrigin_Requested::Data            0                       # Table walker requests started/completed, data/inst
system.cpu.dtb.stage2_mmu.stage2_tlb.walker.walkRequestOrigin_Requested::Inst            0                       # Table walker requests started/completed, data/inst
system.cpu.dtb.stage2_mmu.stage2_tlb.walker.walkRequestOrigin_Requested::total            0                       # Table walker requests started/completed, data/inst
system.cpu.dtb.stage2_mmu.stage2_tlb.walker.walkRequestOrigin_Completed::Data            0                       # Table walker requests started/completed, data/inst
system.cpu.dtb.stage2_mmu.stage2_tlb.walker.walkRequestOrigin_Completed::Inst            0                       # Table walker requests started/completed, data/inst
system.cpu.dtb.stage2_mmu.stage2_tlb.walker.walkRequestOrigin_Completed::total            0                       # Table walker requests started/completed, data/inst
system.cpu.dtb.stage2_mmu.stage2_tlb.walker.walkRequestOrigin::total            0                       # Table walker requests started/completed, data/inst
system.cpu.dtb.stage2_mmu.stage2_tlb.walker.walks            0                       # Table walker walks requested
system.cpu.dtb.stage2_mmu.stage2_tlb.write_accesses            0                       # DTB write accesses
system.cpu.dtb.stage2_mmu.stage2_tlb.write_hits            0                       # DTB write hits
system.cpu.dtb.stage2_mmu.stage2_tlb.write_misses            0                       # DTB write misses
system.cpu.dtb.walker.walkRequestOrigin_Requested::Data            0                       # Table walker requests started/completed, data/inst
system.cpu.dtb.walker.walkRequestOrigin_Requested::Inst            0                       # Table walker requests started/completed, data/inst
system.cpu.dtb.walker.walkRequestOrigin_Requested::total            0                       # Table walker requests started/completed, data/inst
system.cpu.dtb.walker.walkRequestOrigin_Completed::Data            0                       # Table walker requests started/completed, data/inst
system.cpu.dtb.walker.walkRequestOrigin_Completed::Inst            0                       # Table walker requests started/completed, data/inst
system.cpu.dtb.walker.walkRequestOrigin_Completed::total            0                       # Table walker requests started/completed, data/inst
system.cpu.dtb.walker.walkRequestOrigin::total            0                       # Table walker requests started/completed, data/inst
system.cpu.dtb.walker.walks                         0                       # Table walker walks requested
system.cpu.dtb.write_accesses                       0                       # DTB write accesses
system.cpu.dtb.write_hits                           0                       # DTB write hits
system.cpu.dtb.write_misses                         0                       # DTB write misses
system.cpu.fetch2.amo_instructions                  0                       # Number of memory atomic instructions successfully decoded
system.cpu.fetch2.fp_instructions                   0                       # Number of floating point instructions successfully decoded
system.cpu.fetch2.int_instructions           42615308                       # Number of integer instructions successfully decoded
system.cpu.fetch2.load_instructions          43408386                       # Number of memory load instructions successfully decoded
system.cpu.fetch2.store_instructions         11002296                       # Number of memory store instructions successfully decoded
system.cpu.fetch2.vec_instructions                  0                       # Number of SIMD instructions successfully decoded
system.cpu.idleCycles                        32410300                       # Total number of cycles that the object has spent stopped
system.cpu.ipc                               0.606469                       # IPC: instructions per cycle
system.cpu.itb.accesses                             0                       # DTB accesses
system.cpu.itb.align_faults                         0                       # Number of TLB faults due to alignment restrictions
system.cpu.itb.domain_faults                        0                       # Number of TLB faults due to domain restrictions
system.cpu.itb.flush_entries                        0                       # Number of entries that have been flushed from TLB
system.cpu.itb.flush_tlb                            0                       # Number of times complete TLB was flushed
system.cpu.itb.flush_tlb_asid                       0                       # Number of times TLB was flushed by ASID
system.cpu.itb.flush_tlb_mva                        0                       # Number of times TLB was flushed by MVA
system.cpu.itb.flush_tlb_mva_asid                   0                       # Number of times TLB was flushed by MVA & ASID
system.cpu.itb.hits                                 0                       # DTB hits
system.cpu.itb.inst_accesses                        0                       # ITB inst accesses
system.cpu.itb.inst_hits                            0                       # ITB inst hits
system.cpu.itb.inst_misses                          0                       # ITB inst misses
system.cpu.itb.misses                               0                       # DTB misses
system.cpu.itb.perms_faults                         0                       # Number of TLB faults due to permissions restrictions
system.cpu.itb.prefetch_faults                      0                       # Number of TLB faults due to prefetch
system.cpu.itb.read_accesses                        0                       # DTB read accesses
system.cpu.itb.read_hits                            0                       # DTB read hits
system.cpu.itb.read_misses                          0                       # DTB read misses
system.cpu.itb.stage2_mmu.stage2_tlb.accesses            0                       # DTB accesses
system.cpu.itb.stage2_mmu.stage2_tlb.align_faults            0                       # Number of TLB faults due to alignment restrictions
system.cpu.itb.stage2_mmu.stage2_tlb.domain_faults            0                       # Number of TLB faults due to domain restrictions
system.cpu.itb.stage2_mmu.stage2_tlb.flush_entries            0                       # Number of entries that have been flushed from TLB
system.cpu.itb.stage2_mmu.stage2_tlb.flush_tlb            0                       # Number of times complete TLB was flushed
system.cpu.itb.stage2_mmu.stage2_tlb.flush_tlb_asid            0                       # Number of times TLB was flushed by ASID
system.cpu.itb.stage2_mmu.stage2_tlb.flush_tlb_mva            0                       # Number of times TLB was flushed by MVA
system.cpu.itb.stage2_mmu.stage2_tlb.flush_tlb_mva_asid            0                       # Number of times TLB was flushed by MVA & ASID
system.cpu.itb.stage2_mmu.stage2_tlb.hits            0                       # DTB hits
system.cpu.itb.stage2_mmu.stage2_tlb.inst_accesses            0                       # ITB inst accesses
system.cpu.itb.stage2_mmu.stage2_tlb.inst_hits            0                       # ITB inst hits
system.cpu.itb.stage2_mmu.stage2_tlb.inst_misses            0                       # ITB inst misses
system.cpu.itb.stage2_mmu.stage2_tlb.misses            0                       # DTB misses
system.cpu.itb.stage2_mmu.stage2_tlb.perms_faults            0                       # Number of TLB faults due to permissions restrictions
system.cpu.itb.stage2_mmu.stage2_tlb.prefetch_faults            0                       # Number of TLB faults due to prefetch
system.cpu.itb.stage2_mmu.stage2_tlb.read_accesses            0                       # DTB read accesses
system.cpu.itb.stage2_mmu.stage2_tlb.read_hits            0                       # DTB read hits
system.cpu.itb.stage2_mmu.stage2_tlb.read_misses            0                       # DTB read misses
system.cpu.itb.stage2_mmu.stage2_tlb.walker.walkRequestOrigin_Requested::Data            0                       # Table walker requests started/completed, data/inst
system.cpu.itb.stage2_mmu.stage2_tlb.walker.walkRequestOrigin_Requested::Inst            0                       # Table walker requests started/completed, data/inst
system.cpu.itb.stage2_mmu.stage2_tlb.walker.walkRequestOrigin_Requested::total            0                       # Table walker requests started/completed, data/inst
system.cpu.itb.stage2_mmu.stage2_tlb.walker.walkRequestOrigin_Completed::Data            0                       # Table walker requests started/completed, data/inst
system.cpu.itb.stage2_mmu.stage2_tlb.walker.walkRequestOrigin_Completed::Inst            0                       # Table walker requests started/completed, data/inst
system.cpu.itb.stage2_mmu.stage2_tlb.walker.walkRequestOrigin_Completed::total            0                       # Table walker requests started/completed, data/inst
system.cpu.itb.stage2_mmu.stage2_tlb.walker.walkRequestOrigin::total            0                       # Table walker requests started/completed, data/inst
system.cpu.itb.stage2_mmu.stage2_tlb.walker.walks            0                       # Table walker walks requested
system.cpu.itb.stage2_mmu.stage2_tlb.write_accesses            0                       # DTB write accesses
system.cpu.itb.stage2_mmu.stage2_tlb.write_hits            0                       # DTB write hits
system.cpu.itb.stage2_mmu.stage2_tlb.write_misses            0                       # DTB write misses
system.cpu.itb.walker.walkRequestOrigin_Requested::Data            0                       # Table walker requests started/completed, data/inst
system.cpu.itb.walker.walkRequestOrigin_Requested::Inst            0                       # Table walker requests started/completed, data/inst
system.cpu.itb.walker.walkRequestOrigin_Requested::total            0                       # Table walker requests started/completed, data/inst
system.cpu.itb.walker.walkRequestOrigin_Completed::Data            0                       # Table walker requests started/completed, data/inst
system.cpu.itb.walker.walkRequestOrigin_Completed::Inst            0                       # Table walker requests started/completed, data/inst
system.cpu.itb.walker.walkRequestOrigin_Completed::total            0                       # Table walker requests started/completed, data/inst
system.cpu.itb.walker.walkRequestOrigin::total            0                       # Table walker requests started/completed, data/inst
system.cpu.itb.walker.walks                         0                       # Table walker walks requested
system.cpu.itb.write_accesses                       0                       # DTB write accesses
system.cpu.itb.write_hits                           0                       # DTB write hits
system.cpu.itb.write_misses                         0                       # DTB write misses
system.cpu.numCycles                        164888878                       # number of cpu cycles simulated
system.cpu.numFetchSuspends                         0                       # Number of times Execute suspended instruction fetching
system.cpu.numWorkItemsCompleted                    0                       # number of work items this cpu completed
system.cpu.numWorkItemsStarted                      0                       # number of work items this cpu started
system.cpu.op_class_0::No_OpClass                   0      0.00%      0.00% # Class of committed instruction
system.cpu.op_class_0::IntAlu                46531400     46.44%     46.44% # Class of committed instruction
system.cpu.op_class_0::IntMult                  20720      0.02%     46.46% # Class of committed instruction
system.cpu.op_class_0::IntDiv                       0      0.00%     46.46% # Class of committed instruction
system.cpu.op_class_0::FloatAdd                     0      0.00%     46.46% # Class of committed instruction
system.cpu.op_class_0::FloatCmp                     0      0.00%     46.46% # Class of committed instruction
system.cpu.op_class_0::FloatCvt                     0      0.00%     46.46% # Class of committed instruction
system.cpu.op_class_0::FloatMult                    0      0.00%     46.46% # Class of committed instruction
system.cpu.op_class_0::FloatMultAcc                 0      0.00%     46.46% # Class of committed instruction
system.cpu.op_class_0::FloatDiv                     0      0.00%     46.46% # Class of committed instruction
system.cpu.op_class_0::FloatMisc                    0      0.00%     46.46% # Class of committed instruction
system.cpu.op_class_0::FloatSqrt                    0      0.00%     46.46% # Class of committed instruction
system.cpu.op_class_0::SimdAdd                      0      0.00%     46.46% # Class of committed instruction
system.cpu.op_class_0::SimdAddAcc                   0      0.00%     46.46% # Class of committed instruction
system.cpu.op_class_0::SimdAlu                      0      0.00%     46.46% # Class of committed instruction
system.cpu.op_class_0::SimdCmp                      0      0.00%     46.46% # Class of committed instruction
system.cpu.op_class_0::SimdCvt                      0      0.00%     46.46% # Class of committed instruction
system.cpu.op_class_0::SimdMisc                     0      0.00%     46.46% # Class of committed instruction
system.cpu.op_class_0::SimdMult                     0      0.00%     46.46% # Class of committed instruction
system.cpu.op_class_0::SimdMultAcc                  0      0.00%     46.46% # Class of committed instruction
system.cpu.op_class_0::SimdShift                    0      0.00%     46.46% # Class of committed instruction
system.cpu.op_class_0::SimdShiftAcc                 0      0.00%     46.46% # Class of committed instruction
system.cpu.op_class_0::SimdDiv                      0      0.00%     46.46% # Class of committed instruction
system.cpu.op_class_0::SimdSqrt                     0      0.00%     46.46% # Class of committed instruction
system.cpu.op_class_0::SimdFloatAdd                 0      0.00%     46.46% # Class of committed instruction
system.cpu.op_class_0::SimdFloatAlu                 0      0.00%     46.46% # Class of committed instruction
system.cpu.op_class_0::SimdFloatCmp                 0      0.00%     46.46% # Class of committed instruction
system.cpu.op_class_0::SimdFloatCvt                 0      0.00%     46.46% # Class of committed instruction
system.cpu.op_class_0::SimdFloatDiv                 0      0.00%     46.46% # Class of committed instruction
system.cpu.op_class_0::SimdFloatMisc               18      0.00%     46.46% # Class of committed instruction
system.cpu.op_class_0::SimdFloatMult                0      0.00%     46.46% # Class of committed instruction
system.cpu.op_class_0::SimdFloatMultAcc             0      0.00%     46.46% # Class of committed instruction
system.cpu.op_class_0::SimdFloatSqrt                0      0.00%     46.46% # Class of committed instruction
system.cpu.op_class_0::SimdReduceAdd                0      0.00%     46.46% # Class of committed instruction
system.cpu.op_class_0::SimdReduceAlu                0      0.00%     46.46% # Class of committed instruction
system.cpu.op_class_0::SimdReduceCmp                0      0.00%     46.46% # Class of committed instruction
system.cpu.op_class_0::SimdFloatReduceAdd            0      0.00%     46.46% # Class of committed instruction
system.cpu.op_class_0::SimdFloatReduceCmp            0      0.00%     46.46% # Class of committed instruction
system.cpu.op_class_0::SimdAes                      0      0.00%     46.46% # Class of committed instruction
system.cpu.op_class_0::SimdAesMix                   0      0.00%     46.46% # Class of committed instruction
system.cpu.op_class_0::SimdSha1Hash                 0      0.00%     46.46% # Class of committed instruction
system.cpu.op_class_0::SimdSha1Hash2                0      0.00%     46.46% # Class of committed instruction
system.cpu.op_class_0::SimdSha256Hash               0      0.00%     46.46% # Class of committed instruction
system.cpu.op_class_0::SimdSha256Hash2              0      0.00%     46.46% # Class of committed instruction
system.cpu.op_class_0::SimdShaSigma2                0      0.00%     46.46% # Class of committed instruction
system.cpu.op_class_0::SimdShaSigma3                0      0.00%     46.46% # Class of committed instruction
system.cpu.op_class_0::SimdPredAlu                  0      0.00%     46.46% # Class of committed instruction
system.cpu.op_class_0::MemRead               42693601     42.61%     89.07% # Class of committed instruction
system.cpu.op_class_0::MemWrite              10950624     10.93%    100.00% # Class of committed instruction
system.cpu.op_class_0::FloatMemRead                 0      0.00%    100.00% # Class of committed instruction
system.cpu.op_class_0::FloatMemWrite                0      0.00%    100.00% # Class of committed instruction
system.cpu.op_class_0::IprAccess                    0      0.00%    100.00% # Class of committed instruction
system.cpu.op_class_0::InstPrefetch                 0      0.00%    100.00% # Class of committed instruction
system.cpu.op_class_0::total                100196363                       # Class of committed instruction
system.cpu.tickCycles                       132478578                       # Number of cycles that the object actually ticked
system.cpu.workload.numSyscalls                    84                       # Number of system calls
system.membus.snoop_filter.hit_multi_requests            0                       # Number of requests hitting in the snoop filter with multiple (>1) holders of the requested data.
system.membus.snoop_filter.hit_multi_snoops            0                       # Number of snoops hitting in the snoop filter with multiple (>1) holders of the requested data.
system.membus.snoop_filter.hit_single_requests        57707                       # Number of requests hitting in the snoop filter with a single holder of the requested data.
system.membus.snoop_filter.hit_single_snoops            0                       # Number of snoops hitting in the snoop filter with a single holder of the requested data.
system.membus.snoop_filter.tot_requests        132027                       # Total number of requests made to the snoop filter.
system.membus.snoop_filter.tot_snoops               0                       # Total number of snoops made to the snoop filter.
system.tol2bus.snoop_filter.hit_multi_requests          290                       # Number of requests hitting in the snoop filter with multiple (>1) holders of the requested data.
system.tol2bus.snoop_filter.hit_multi_snoops            1                       # Number of snoops hitting in the snoop filter with multiple (>1) holders of the requested data.
system.tol2bus.snoop_filter.hit_single_requests       769213                       # Number of requests hitting in the snoop filter with a single holder of the requested data.
system.tol2bus.snoop_filter.hit_single_snoops          248                       # Number of snoops hitting in the snoop filter with a single holder of the requested data.
system.tol2bus.snoop_filter.tot_requests      1538958                       # Total number of requests made to the snoop filter.
system.tol2bus.snoop_filter.tot_snoops            249                       # Total number of snoops made to the snoop filter.
system.membus.pwrStateResidencyTicks::UNDEFINED  82444439000                       # Cumulative time (in ticks) in various power states
system.membus.trans_dist::ReadResp              19346                       # Transaction distribution
system.membus.trans_dist::WritebackDirty        40223                       # Transaction distribution
system.membus.trans_dist::CleanEvict            17475                       # Transaction distribution
system.membus.trans_dist::ReadExReq             54983                       # Transaction distribution
system.membus.trans_dist::ReadExResp            54983                       # Transaction distribution
system.membus.trans_dist::ReadSharedReq         19346                       # Transaction distribution
system.membus.pkt_count_system.l2.mem_side::system.mem_ctrls.port       206356                       # Packet count per connected master and slave (bytes)
system.membus.pkt_count::total                 206356                       # Packet count per connected master and slave (bytes)
system.membus.pkt_size_system.l2.mem_side::system.mem_ctrls.port     29325312                       # Cumulative packet size per connected master and slave (bytes)
system.membus.pkt_size::total                29325312                       # Cumulative packet size per connected master and slave (bytes)
system.membus.snoops                                0                       # Total snoops (count)
system.membus.snoopTraffic                          0                       # Total snoop traffic (bytes)
system.membus.snoop_fanout::samples             74329                       # Request fanout histogram
system.membus.snoop_fanout::mean                    0                       # Request fanout histogram
system.membus.snoop_fanout::stdev                   0                       # Request fanout histogram
system.membus.snoop_fanout::underflows              0      0.00%      0.00% # Request fanout histogram
system.membus.snoop_fanout::0                   74329    100.00%    100.00% # Request fanout histogram
system.membus.snoop_fanout::1                       0      0.00%    100.00% # Request fanout histogram
system.membus.snoop_fanout::overflows               0      0.00%    100.00% # Request fanout histogram
system.membus.snoop_fanout::min_value               0                       # Request fanout histogram
system.membus.snoop_fanout::max_value               0                       # Request fanout histogram
system.membus.snoop_fanout::total               74329                       # Request fanout histogram
system.membus.respLayer1.occupancy         1292237500                       # Layer occupancy (ticks)
system.membus.respLayer1.utilization              1.6                       # Layer utilization (%)
system.membus.reqLayer0.occupancy           797407500                       # Layer occupancy (ticks)
system.membus.reqLayer0.utilization               1.0                       # Layer utilization (%)
system.tol2bus.pwrStateResidencyTicks::UNDEFINED  82444439000                       # Cumulative time (in ticks) in various power states
system.tol2bus.trans_dist::ReadResp            443152                       # Transaction distribution
system.tol2bus.trans_dist::WritebackDirty       787565                       # Transaction distribution
system.tol2bus.trans_dist::CleanEvict           39595                       # Transaction distribution
system.tol2bus.trans_dist::ReadExReq           326593                       # Transaction distribution
system.tol2bus.trans_dist::ReadExResp          326592                       # Transaction distribution
system.tol2bus.trans_dist::ReadCleanReq           275                       # Transaction distribution
system.tol2bus.trans_dist::ReadSharedReq       442877                       # Transaction distribution
system.tol2bus.pkt_count_system.cpu.icache.mem_side::system.l2.cpu_side          550                       # Packet count per connected master and slave (bytes)
system.tol2bus.pkt_count_system.cpu.dcache.mem_side::system.l2.cpu_side      2308152                       # Packet count per connected master and slave (bytes)
system.tol2bus.pkt_count::total               2308702                       # Packet count per connected master and slave (bytes)
system.tol2bus.pkt_size_system.cpu.icache.mem_side::system.l2.cpu_side        70400                       # Cumulative packet size per connected master and slave (bytes)
system.tol2bus.pkt_size_system.cpu.dcache.mem_side::system.l2.cpu_side    388303616                       # Cumulative packet size per connected master and slave (bytes)
system.tol2bus.pkt_size::total              388374016                       # Cumulative packet size per connected master and slave (bytes)
system.tol2bus.snoops                           57947                       # Total snoops (count)
system.tol2bus.snoopTraffic                  10297088                       # Total snoop traffic (bytes)
system.tol2bus.snoop_fanout::samples           827692                       # Request fanout histogram
system.tol2bus.snoop_fanout::mean            0.000652                       # Request fanout histogram
system.tol2bus.snoop_fanout::stdev           0.025581                       # Request fanout histogram
system.tol2bus.snoop_fanout::underflows             0      0.00%      0.00% # Request fanout histogram
system.tol2bus.snoop_fanout::0                 827153     99.93%     99.93% # Request fanout histogram
system.tol2bus.snoop_fanout::1                    538      0.07%    100.00% # Request fanout histogram
system.tol2bus.snoop_fanout::2                      1      0.00%    100.00% # Request fanout histogram
system.tol2bus.snoop_fanout::overflows              0      0.00%    100.00% # Request fanout histogram
system.tol2bus.snoop_fanout::min_value              0                       # Request fanout histogram
system.tol2bus.snoop_fanout::max_value              2                       # Request fanout histogram
system.tol2bus.snoop_fanout::total             827692                       # Request fanout histogram
system.tol2bus.reqLayer0.occupancy         3758847000                       # Layer occupancy (ticks)
system.tol2bus.reqLayer0.utilization              4.6                       # Layer utilization (%)
system.tol2bus.respLayer1.occupancy        3462612995                       # Layer occupancy (ticks)
system.tol2bus.respLayer1.utilization             4.2                       # Layer utilization (%)
system.tol2bus.respLayer0.occupancy           1237500                       # Layer occupancy (ticks)
system.tol2bus.respLayer0.utilization             0.0                       # Layer utilization (%)
system.voltage_domain.voltage                       1                       # Voltage in Volts
system.clk_domain.clock                          1000                       # Clock period in ticks
system.l2.pwrStateResidencyTicks::UNDEFINED  82444439000                       # Cumulative time (in ticks) in various power states
system.l2.demand_hits::.cpu.inst                   11                       # number of demand (read+write) hits
system.l2.demand_hits::.cpu.data               695400                       # number of demand (read+write) hits
system.l2.demand_hits::total                   695411                       # number of demand (read+write) hits
system.l2.overall_hits::.cpu.inst                  11                       # number of overall hits
system.l2.overall_hits::.cpu.data              695400                       # number of overall hits
system.l2.overall_hits::total                  695411                       # number of overall hits
system.l2.demand_misses::.cpu.inst                264                       # number of demand (read+write) misses
system.l2.demand_misses::.cpu.data              74070                       # number of demand (read+write) misses
system.l2.demand_misses::total                  74334                       # number of demand (read+write) misses
system.l2.overall_misses::.cpu.inst               264                       # number of overall misses
system.l2.overall_misses::.cpu.data             74070                       # number of overall misses
system.l2.overall_misses::total                 74334                       # number of overall misses
system.l2.demand_miss_latency::.cpu.inst     25549500                       # number of demand (read+write) miss cycles
system.l2.demand_miss_latency::.cpu.data   8803805000                       # number of demand (read+write) miss cycles
system.l2.demand_miss_latency::total       8829354500                       # number of demand (read+write) miss cycles
system.l2.overall_miss_latency::.cpu.inst     25549500                       # number of overall miss cycles
system.l2.overall_miss_latency::.cpu.data   8803805000                       # number of overall miss cycles
system.l2.overall_miss_latency::total      8829354500                       # number of overall miss cycles
system.l2.demand_accesses::.cpu.inst              275                       # number of demand (read+write) accesses
system.l2.demand_accesses::.cpu.data           769470                       # number of demand (read+write) accesses
system.l2.demand_accesses::total               769745                       # number of demand (read+write) accesses
system.l2.overall_accesses::.cpu.inst             275                       # number of overall (read+write) accesses
system.l2.overall_accesses::.cpu.data          769470                       # number of overall (read+write) accesses
system.l2.overall_accesses::total              769745                       # number of overall (read+write) accesses
system.l2.demand_miss_rate::.cpu.inst        0.960000                       # miss rate for demand accesses
system.l2.demand_miss_rate::.cpu.data        0.096261                       # miss rate for demand accesses
system.l2.demand_miss_rate::total            0.096570                       # miss rate for demand accesses
system.l2.overall_miss_rate::.cpu.inst       0.960000                       # miss rate for overall accesses
system.l2.overall_miss_rate::.cpu.data       0.096261                       # miss rate for overall accesses
system.l2.overall_miss_rate::total           0.096570                       # miss rate for overall accesses
system.l2.demand_avg_miss_latency::.cpu.inst 96778.409091                       # average overall miss latency
system.l2.demand_avg_miss_latency::.cpu.data 118857.904685                       # average overall miss latency
system.l2.demand_avg_miss_latency::total 118779.488525                       # average overall miss latency
system.l2.overall_avg_miss_latency::.cpu.inst 96778.409091                       # average overall miss latency
system.l2.overall_avg_miss_latency::.cpu.data 118857.904685                       # average overall miss latency
system.l2.overall_avg_miss_latency::total 118779.488525                       # average overall miss latency
system.l2.blocked_cycles::no_mshrs                  0                       # number of cycles access was blocked
system.l2.blocked_cycles::no_targets                0                       # number of cycles access was blocked
system.l2.blocked::no_mshrs                         0                       # number of cycles access was blocked
system.l2.blocked::no_targets                       0                       # number of cycles access was blocked
system.l2.avg_blocked_cycles::no_mshrs            nan                       # average number of cycles each access was blocked
system.l2.avg_blocked_cycles::no_targets          nan                       # average number of cycles each access was blocked
system.l2.writebacks::.writebacks               40223                       # number of writebacks
system.l2.writebacks::total                     40223                       # number of writebacks
system.l2.demand_mshr_hits::.cpu.data               5                       # number of demand (read+write) MSHR hits
system.l2.demand_mshr_hits::total                   5                       # number of demand (read+write) MSHR hits
system.l2.overall_mshr_hits::.cpu.data              5                       # number of overall MSHR hits
system.l2.overall_mshr_hits::total                  5                       # number of overall MSHR hits
system.l2.demand_mshr_misses::.cpu.inst           264                       # number of demand (read+write) MSHR misses
system.l2.demand_mshr_misses::.cpu.data         74065                       # number of demand (read+write) MSHR misses
system.l2.demand_mshr_misses::total             74329                       # number of demand (read+write) MSHR misses
system.l2.overall_mshr_misses::.cpu.inst          264                       # number of overall MSHR misses
system.l2.overall_mshr_misses::.cpu.data        74065                       # number of overall MSHR misses
system.l2.overall_mshr_misses::total            74329                       # number of overall MSHR misses
system.l2.demand_mshr_miss_latency::.cpu.inst     22909500                       # number of demand (read+write) MSHR miss cycles
system.l2.demand_mshr_miss_latency::.cpu.data   8062749000                       # number of demand (read+write) MSHR miss cycles
system.l2.demand_mshr_miss_latency::total   8085658500                       # number of demand (read+write) MSHR miss cycles
system.l2.overall_mshr_miss_latency::.cpu.inst     22909500                       # number of overall MSHR miss cycles
system.l2.overall_mshr_miss_latency::.cpu.data   8062749000                       # number of overall MSHR miss cycles
system.l2.overall_mshr_miss_latency::total   8085658500                       # number of overall MSHR miss cycles
system.l2.demand_mshr_miss_rate::.cpu.inst     0.960000                       # mshr miss rate for demand accesses
system.l2.demand_mshr_miss_rate::.cpu.data     0.096255                       # mshr miss rate for demand accesses
system.l2.demand_mshr_miss_rate::total       0.096563                       # mshr miss rate for demand accesses
system.l2.overall_mshr_miss_rate::.cpu.inst     0.960000                       # mshr miss rate for overall accesses
system.l2.overall_mshr_miss_rate::.cpu.data     0.096255                       # mshr miss rate for overall accesses
system.l2.overall_mshr_miss_rate::total      0.096563                       # mshr miss rate for overall accesses
system.l2.demand_avg_mshr_miss_latency::.cpu.inst 86778.409091                       # average overall mshr miss latency
system.l2.demand_avg_mshr_miss_latency::.cpu.data 108860.446905                       # average overall mshr miss latency
system.l2.demand_avg_mshr_miss_latency::total 108782.016440                       # average overall mshr miss latency
system.l2.overall_avg_mshr_miss_latency::.cpu.inst 86778.409091                       # average overall mshr miss latency
system.l2.overall_avg_mshr_miss_latency::.cpu.data 108860.446905                       # average overall mshr miss latency
system.l2.overall_avg_mshr_miss_latency::total 108782.016440                       # average overall mshr miss latency
system.l2.replacements                          57947                       # number of replacements
system.l2.WritebackDirty_hits::.writebacks       747342                       # number of WritebackDirty hits
system.l2.WritebackDirty_hits::total           747342                       # number of WritebackDirty hits
system.l2.WritebackDirty_accesses::.writebacks       747342                       # number of WritebackDirty accesses(hits+misses)
system.l2.WritebackDirty_accesses::total       747342                       # number of WritebackDirty accesses(hits+misses)
system.l2.ReadExReq_hits::.cpu.data            271610                       # number of ReadExReq hits
system.l2.ReadExReq_hits::total                271610                       # number of ReadExReq hits
system.l2.ReadExReq_misses::.cpu.data           54983                       # number of ReadExReq misses
system.l2.ReadExReq_misses::total               54983                       # number of ReadExReq misses
system.l2.ReadExReq_miss_latency::.cpu.data   6898711000                       # number of ReadExReq miss cycles
system.l2.ReadExReq_miss_latency::total    6898711000                       # number of ReadExReq miss cycles
system.l2.ReadExReq_accesses::.cpu.data        326593                       # number of ReadExReq accesses(hits+misses)
system.l2.ReadExReq_accesses::total            326593                       # number of ReadExReq accesses(hits+misses)
system.l2.ReadExReq_miss_rate::.cpu.data     0.168353                       # miss rate for ReadExReq accesses
system.l2.ReadExReq_miss_rate::total         0.168353                       # miss rate for ReadExReq accesses
system.l2.ReadExReq_avg_miss_latency::.cpu.data 125469.890693                       # average ReadExReq miss latency
system.l2.ReadExReq_avg_miss_latency::total 125469.890693                       # average ReadExReq miss latency
system.l2.ReadExReq_mshr_misses::.cpu.data        54983                       # number of ReadExReq MSHR misses
system.l2.ReadExReq_mshr_misses::total          54983                       # number of ReadExReq MSHR misses
system.l2.ReadExReq_mshr_miss_latency::.cpu.data   6348881000                       # number of ReadExReq MSHR miss cycles
system.l2.ReadExReq_mshr_miss_latency::total   6348881000                       # number of ReadExReq MSHR miss cycles
system.l2.ReadExReq_mshr_miss_rate::.cpu.data     0.168353                       # mshr miss rate for ReadExReq accesses
system.l2.ReadExReq_mshr_miss_rate::total     0.168353                       # mshr miss rate for ReadExReq accesses
system.l2.ReadExReq_avg_mshr_miss_latency::.cpu.data 115469.890693                       # average ReadExReq mshr miss latency
system.l2.ReadExReq_avg_mshr_miss_latency::total 115469.890693                       # average ReadExReq mshr miss latency
system.l2.ReadCleanReq_hits::.cpu.inst             11                       # number of ReadCleanReq hits
system.l2.ReadCleanReq_hits::total                 11                       # number of ReadCleanReq hits
system.l2.ReadCleanReq_misses::.cpu.inst          264                       # number of ReadCleanReq misses
system.l2.ReadCleanReq_misses::total              264                       # number of ReadCleanReq misses
system.l2.ReadCleanReq_miss_latency::.cpu.inst     25549500                       # number of ReadCleanReq miss cycles
system.l2.ReadCleanReq_miss_latency::total     25549500                       # number of ReadCleanReq miss cycles
system.l2.ReadCleanReq_accesses::.cpu.inst          275                       # number of ReadCleanReq accesses(hits+misses)
system.l2.ReadCleanReq_accesses::total            275                       # number of ReadCleanReq accesses(hits+misses)
system.l2.ReadCleanReq_miss_rate::.cpu.inst     0.960000                       # miss rate for ReadCleanReq accesses
system.l2.ReadCleanReq_miss_rate::total      0.960000                       # miss rate for ReadCleanReq accesses
system.l2.ReadCleanReq_avg_miss_latency::.cpu.inst 96778.409091                       # average ReadCleanReq miss latency
system.l2.ReadCleanReq_avg_miss_latency::total 96778.409091                       # average ReadCleanReq miss latency
system.l2.ReadCleanReq_mshr_misses::.cpu.inst          264                       # number of ReadCleanReq MSHR misses
system.l2.ReadCleanReq_mshr_misses::total          264                       # number of ReadCleanReq MSHR misses
system.l2.ReadCleanReq_mshr_miss_latency::.cpu.inst     22909500                       # number of ReadCleanReq MSHR miss cycles
system.l2.ReadCleanReq_mshr_miss_latency::total     22909500                       # number of ReadCleanReq MSHR miss cycles
system.l2.ReadCleanReq_mshr_miss_rate::.cpu.inst     0.960000                       # mshr miss rate for ReadCleanReq accesses
system.l2.ReadCleanReq_mshr_miss_rate::total     0.960000                       # mshr miss rate for ReadCleanReq accesses
system.l2.ReadCleanReq_avg_mshr_miss_latency::.cpu.inst 86778.409091                       # average ReadCleanReq mshr miss latency
system.l2.ReadCleanReq_avg_mshr_miss_latency::total 86778.409091                       # average ReadCleanReq mshr miss latency
system.l2.ReadSharedReq_hits::.cpu.data        423790                       # number of ReadSharedReq hits
system.l2.ReadSharedReq_hits::total            423790                       # number of ReadSharedReq hits
system.l2.ReadSharedReq_misses::.cpu.data        19087                       # number of ReadSharedReq misses
system.l2.ReadSharedReq_misses::total           19087                       # number of ReadSharedReq misses
system.l2.ReadSharedReq_miss_latency::.cpu.data   1905094000                       # number of ReadSharedReq miss cycles
system.l2.ReadSharedReq_miss_latency::total   1905094000                       # number of ReadSharedReq miss cycles
system.l2.ReadSharedReq_accesses::.cpu.data       442877                       # number of ReadSharedReq accesses(hits+misses)
system.l2.ReadSharedReq_accesses::total        442877                       # number of ReadSharedReq accesses(hits+misses)
system.l2.ReadSharedReq_miss_rate::.cpu.data     0.043098                       # miss rate for ReadSharedReq accesses
system.l2.ReadSharedReq_miss_rate::total     0.043098                       # miss rate for ReadSharedReq accesses
system.l2.ReadSharedReq_avg_miss_latency::.cpu.data 99811.075601                       # average ReadSharedReq miss latency
system.l2.ReadSharedReq_avg_miss_latency::total 99811.075601                       # average ReadSharedReq miss latency
system.l2.ReadSharedReq_mshr_hits::.cpu.data            5                       # number of ReadSharedReq MSHR hits
system.l2.ReadSharedReq_mshr_hits::total            5                       # number of ReadSharedReq MSHR hits
system.l2.ReadSharedReq_mshr_misses::.cpu.data        19082                       # number of ReadSharedReq MSHR misses
system.l2.ReadSharedReq_mshr_misses::total        19082                       # number of ReadSharedReq MSHR misses
system.l2.ReadSharedReq_mshr_miss_latency::.cpu.data   1713868000                       # number of ReadSharedReq MSHR miss cycles
system.l2.ReadSharedReq_mshr_miss_latency::total   1713868000                       # number of ReadSharedReq MSHR miss cycles
system.l2.ReadSharedReq_mshr_miss_rate::.cpu.data     0.043086                       # mshr miss rate for ReadSharedReq accesses
system.l2.ReadSharedReq_mshr_miss_rate::total     0.043086                       # mshr miss rate for ReadSharedReq accesses
system.l2.ReadSharedReq_avg_mshr_miss_latency::.cpu.data 89815.952206                       # average ReadSharedReq mshr miss latency
system.l2.ReadSharedReq_avg_mshr_miss_latency::total 89815.952206                       # average ReadSharedReq mshr miss latency
system.l2.tags.pwrStateResidencyTicks::UNDEFINED  82444439000                       # Cumulative time (in ticks) in various power states
system.l2.tags.tagsinuse                 15859.021194                       # Cycle average of tags in use
system.l2.tags.total_refs                     1538663                       # Total number of references to valid blocks.
system.l2.tags.sampled_refs                     74331                       # Sample count of references to valid blocks.
system.l2.tags.avg_refs                     20.700152                       # Average number of references to valid blocks.
system.l2.tags.warmup_cycle                     92000                       # Cycle when the warmup percentage was hit.
system.l2.tags.occ_blocks::.writebacks       0.392264                       # Average occupied blocks per requestor
system.l2.tags.occ_blocks::.cpu.inst        36.364219                       # Average occupied blocks per requestor
system.l2.tags.occ_blocks::.cpu.data     15822.264710                       # Average occupied blocks per requestor
system.l2.tags.occ_percent::.writebacks      0.000024                       # Average percentage of cache occupancy
system.l2.tags.occ_percent::.cpu.inst        0.002219                       # Average percentage of cache occupancy
system.l2.tags.occ_percent::.cpu.data        0.965714                       # Average percentage of cache occupancy
system.l2.tags.occ_percent::total            0.967958                       # Average percentage of cache occupancy
system.l2.tags.occ_task_id_blocks::1024         16384                       # Occupied blocks per task id
system.l2.tags.age_task_id_blocks_1024::2            3                       # Occupied blocks per task id
system.l2.tags.age_task_id_blocks_1024::3          922                       # Occupied blocks per task id
system.l2.tags.age_task_id_blocks_1024::4        15459                       # Occupied blocks per task id
system.l2.tags.occ_task_id_percent::1024            1                       # Percentage of cache occupancy per task id
system.l2.tags.tag_accesses                  12383675                       # Number of tag accesses
system.l2.tags.data_accesses                 12383675                       # Number of data accesses
system.cpu_voltage_domain.voltage                   1                       # Voltage in Volts
system.mem_ctrls.pwrStateResidencyTicks::UNDEFINED  82444439000                       # Cumulative time (in ticks) in various power states
system.mem_ctrls.bytes_read::.cpu.inst          67584                       # Number of bytes read from this memory
system.mem_ctrls.bytes_read::.cpu.data       18960640                       # Number of bytes read from this memory
system.mem_ctrls.bytes_read::total           19028224                       # Number of bytes read from this memory
system.mem_ctrls.bytes_inst_read::.cpu.inst        67584                       # Number of instructions bytes read from this memory
system.mem_ctrls.bytes_inst_read::total         67584                       # Number of instructions bytes read from this memory
system.mem_ctrls.bytes_written::.writebacks     10297088                       # Number of bytes written to this memory
system.mem_ctrls.bytes_written::total        10297088                       # Number of bytes written to this memory
system.mem_ctrls.num_reads::.cpu.inst             264                       # Number of read requests responded to by this memory
system.mem_ctrls.num_reads::.cpu.data           74065                       # Number of read requests responded to by this memory
system.mem_ctrls.num_reads::total               74329                       # Number of read requests responded to by this memory
system.mem_ctrls.num_writes::.writebacks        40223                       # Number of write requests responded to by this memory
system.mem_ctrls.num_writes::total              40223                       # Number of write requests responded to by this memory
system.mem_ctrls.bw_read::.cpu.inst            819752                       # Total read bandwidth from this memory (bytes/s)
system.mem_ctrls.bw_read::.cpu.data         229980824                       # Total read bandwidth from this memory (bytes/s)
system.mem_ctrls.bw_read::total             230800576                       # Total read bandwidth from this memory (bytes/s)
system.mem_ctrls.bw_inst_read::.cpu.inst       819752                       # Instruction read bandwidth from this memory (bytes/s)
system.mem_ctrls.bw_inst_read::total           819752                       # Instruction read bandwidth from this memory (bytes/s)
system.mem_ctrls.bw_write::.writebacks      124897302                       # Write bandwidth from this memory (bytes/s)
system.mem_ctrls.bw_write::total            124897302                       # Write bandwidth from this memory (bytes/s)
system.mem_ctrls.bw_total::.writebacks      124897302                       # Total bandwidth to/from this memory (bytes/s)
system.mem_ctrls.bw_total::.cpu.inst           819752                       # Total bandwidth to/from this memory (bytes/s)
system.mem_ctrls.bw_total::.cpu.data        229980824                       # Total bandwidth to/from this memory (bytes/s)
system.mem_ctrls.bw_total::total            355697878                       # Total bandwidth to/from this memory (bytes/s)
system.mem_ctrls.avgPriority_.writebacks::samples    160892.00                       # Average QoS priority value for accepted requests
system.mem_ctrls.avgPriority_.cpu.inst::samples      1056.00                       # Average QoS priority value for accepted requests
system.mem_ctrls.avgPriority_.cpu.data::samples    296248.00                       # Average QoS priority value for accepted requests
system.mem_ctrls.priorityMinLatency      0.000000018750                       # per QoS priority minimum request to response latency (s)
system.mem_ctrls.priorityMaxLatency      0.012898320500                       # per QoS priority maximum request to response latency (s)
system.mem_ctrls.numReadWriteTurnArounds         9861                       # Number of turnarounds from READ to WRITE
system.mem_ctrls.numWriteReadTurnArounds         9861                       # Number of turnarounds from WRITE to READ
system.mem_ctrls.numStayReadState              411822                       # Number of times bus staying in READ state
system.mem_ctrls.numStayWriteState             151254                       # Number of times bus staying in WRITE state
system.mem_ctrls.readReqs                       74329                       # Number of read requests accepted
system.mem_ctrls.writeReqs                      40223                       # Number of write requests accepted
system.mem_ctrls.readBursts                    297316                       # Number of DRAM read bursts, including those serviced by the write queue
system.mem_ctrls.writeBursts                   160892                       # Number of DRAM write bursts, including those merged in the write queue
system.mem_ctrls.servicedByWrQ                     12                       # Number of DRAM read bursts serviced by the write queue
system.mem_ctrls.mergedWrBursts                     0                       # Number of DRAM write bursts merged with an existing one
system.mem_ctrls.neitherReadNorWriteReqs            0                       # Number of requests that are neither read nor write
system.mem_ctrls.perBankRdBursts::0             18848                       # Per bank write bursts
system.mem_ctrls.perBankRdBursts::1             18816                       # Per bank write bursts
system.mem_ctrls.perBankRdBursts::2             18756                       # Per bank write bursts
system.mem_ctrls.perBankRdBursts::3             18480                       # Per bank write bursts
system.mem_ctrls.perBankRdBursts::4             18584                       # Per bank write bursts
system.mem_ctrls.perBankRdBursts::5             18556                       # Per bank write bursts
system.mem_ctrls.perBankRdBursts::6             18472                       # Per bank write bursts
system.mem_ctrls.perBankRdBursts::7             18588                       # Per bank write bursts
system.mem_ctrls.perBankRdBursts::8             18496                       # Per bank write bursts
system.mem_ctrls.perBankRdBursts::9             18496                       # Per bank write bursts
system.mem_ctrls.perBankRdBursts::10            18676                       # Per bank write bursts
system.mem_ctrls.perBankRdBursts::11            18644                       # Per bank write bursts
system.mem_ctrls.perBankRdBursts::12            18576                       # Per bank write bursts
system.mem_ctrls.perBankRdBursts::13            18356                       # Per bank write bursts
system.mem_ctrls.perBankRdBursts::14            18356                       # Per bank write bursts
system.mem_ctrls.perBankRdBursts::15            18604                       # Per bank write bursts
system.mem_ctrls.perBankWrBursts::0             10112                       # Per bank write bursts
system.mem_ctrls.perBankWrBursts::1             10124                       # Per bank write bursts
system.mem_ctrls.perBankWrBursts::2             10184                       # Per bank write bursts
system.mem_ctrls.perBankWrBursts::3             10160                       # Per bank write bursts
system.mem_ctrls.perBankWrBursts::4             10104                       # Per bank write bursts
system.mem_ctrls.perBankWrBursts::5             10076                       # Per bank write bursts
system.mem_ctrls.perBankWrBursts::6             10052                       # Per bank write bursts
system.mem_ctrls.perBankWrBursts::7             10116                       # Per bank write bursts
system.mem_ctrls.perBankWrBursts::8             10028                       # Per bank write bursts
system.mem_ctrls.perBankWrBursts::9              9984                       # Per bank write bursts
system.mem_ctrls.perBankWrBursts::10             9984                       # Per bank write bursts
system.mem_ctrls.perBankWrBursts::11             9984                       # Per bank write bursts
system.mem_ctrls.perBankWrBursts::12             9972                       # Per bank write bursts
system.mem_ctrls.perBankWrBursts::13             9984                       # Per bank write bursts
system.mem_ctrls.perBankWrBursts::14             9981                       # Per bank write bursts
system.mem_ctrls.perBankWrBursts::15            10032                       # Per bank write bursts
system.mem_ctrls.avgRdQLen                       4.12                       # Average read queue length when enqueuing
system.mem_ctrls.avgWrQLen                      27.90                       # Average write queue length when enqueuing
system.mem_ctrls.totQLat                  11622815250                       # Total ticks spent queuing
system.mem_ctrls.totBusLat                 1486520000                       # Total ticks spent in databus transfers
system.mem_ctrls.totMemAccLat             17197265250                       # Total ticks spent from burst creation until serviced by the DRAM
system.mem_ctrls.avgQLat                     39094.04                       # Average queueing delay per DRAM burst
system.mem_ctrls.avgBusLat                    5000.00                       # Average bus latency per DRAM burst
system.mem_ctrls.avgMemAccLat                57844.04                       # Average memory access latency per DRAM burst
system.mem_ctrls.numRdRetry                         0                       # Number of times read queue was full causing retry
system.mem_ctrls.numWrRetry                         0                       # Number of times write queue was full causing retry
system.mem_ctrls.readRowHits                   267598                       # Number of row buffer hits during reads
system.mem_ctrls.writeRowHits                  144980                       # Number of row buffer hits during writes
system.mem_ctrls.readRowHitRate                 90.01                       # Row buffer hit rate for reads
system.mem_ctrls.writeRowHitRate                90.11                       # Row buffer hit rate for writes
system.mem_ctrls.readPktSize::0                     0                       # Read request sizes (log2)
system.mem_ctrls.readPktSize::1                     0                       # Read request sizes (log2)
system.mem_ctrls.readPktSize::2                     0                       # Read request sizes (log2)
system.mem_ctrls.readPktSize::3                     0                       # Read request sizes (log2)
system.mem_ctrls.readPktSize::4                     0                       # Read request sizes (log2)
system.mem_ctrls.readPktSize::5                     0                       # Read request sizes (log2)
system.mem_ctrls.readPktSize::6                297316                       # Read request sizes (log2)
system.mem_ctrls.writePktSize::0                    0                       # Write request sizes (log2)
system.mem_ctrls.writePktSize::1                    0                       # Write request sizes (log2)
system.mem_ctrls.writePktSize::2                    0                       # Write request sizes (log2)
system.mem_ctrls.writePktSize::3                    0                       # Write request sizes (log2)
system.mem_ctrls.writePktSize::4                    0                       # Write request sizes (log2)
system.mem_ctrls.writePktSize::5                    0                       # Write request sizes (log2)
system.mem_ctrls.writePktSize::6               160892                       # Write request sizes (log2)
system.mem_ctrls.rdQLenPdf::0                   58594                       # What read queue length does an incoming req see
system.mem_ctrls.rdQLenPdf::1                   58676                       # What read queue length does an incoming req see
system.mem_ctrls.rdQLenPdf::2                   58801                       # What read queue length does an incoming req see
system.mem_ctrls.rdQLenPdf::3                   59898                       # What read queue length does an incoming req see
system.mem_ctrls.rdQLenPdf::4                   15730                       # What read queue length does an incoming req see
system.mem_ctrls.rdQLenPdf::5                   15648                       # What read queue length does an incoming req see
system.mem_ctrls.rdQLenPdf::6                   15523                       # What read queue length does an incoming req see
system.mem_ctrls.rdQLenPdf::7                   14426                       # What read queue length does an incoming req see
system.mem_ctrls.rdQLenPdf::8                       2                       # What read queue length does an incoming req see
system.mem_ctrls.rdQLenPdf::9                       2                       # What read queue length does an incoming req see
system.mem_ctrls.rdQLenPdf::10                      2                       # What read queue length does an incoming req see
system.mem_ctrls.rdQLenPdf::11                      2                       # What read queue length does an incoming req see
system.mem_ctrls.rdQLenPdf::12                      0                       # What read queue length does an incoming req see
system.mem_ctrls.rdQLenPdf::13                      0                       # What read queue length does an incoming req see
system.mem_ctrls.rdQLenPdf::14                      0                       # What read queue length does an incoming req see
system.mem_ctrls.rdQLenPdf::15                      0                       # What read queue length does an incoming req see
system.mem_ctrls.rdQLenPdf::16                      0                       # What read queue length does an incoming req see
system.mem_ctrls.rdQLenPdf::17                      0                       # What read queue length does an incoming req see
system.mem_ctrls.rdQLenPdf::18                      0                       # What read queue length does an incoming req see
system.mem_ctrls.rdQLenPdf::19                      0                       # What read queue length does an incoming req see
system.mem_ctrls.rdQLenPdf::20                      0                       # What read queue length does an incoming req see
system.mem_ctrls.rdQLenPdf::21                      0                       # What read queue length does an incoming req see
system.mem_ctrls.rdQLenPdf::22                      0                       # What read queue length does an incoming req see
system.mem_ctrls.rdQLenPdf::23                      0                       # What read queue length does an incoming req see
system.mem_ctrls.rdQLenPdf::24                      0                       # What read queue length does an incoming req see
system.mem_ctrls.rdQLenPdf::25                      0                       # What read queue length does an incoming req see
system.mem_ctrls.rdQLenPdf::26                      0                       # What read queue length does an incoming req see
system.mem_ctrls.rdQLenPdf::27                      0                       # What read queue length does an incoming req see
system.mem_ctrls.rdQLenPdf::28                      0                       # What read queue length does an incoming req see
system.mem_ctrls.rdQLenPdf::29                      0                       # What read queue length does an incoming req see
system.mem_ctrls.rdQLenPdf::30                      0                       # What read queue length does an incoming req see
system.mem_ctrls.rdQLenPdf::31                      0                       # What read queue length does an incoming req see
system.mem_ctrls.wrQLenPdf::0                       1                       # What write queue length does an incoming req see
system.mem_ctrls.wrQLenPdf::1                       1                       # What write queue length does an incoming req see
system.mem_ctrls.wrQLenPdf::2                       1                       # What write queue length does an incoming req see
system.mem_ctrls.wrQLenPdf::3                       1                       # What write queue length does an incoming req see
system.mem_ctrls.wrQLenPdf::4                       1                       # What write queue length does an incoming req see
system.mem_ctrls.wrQLenPdf::5                       1                       # What write queue length does an incoming req see
system.mem_ctrls.wrQLenPdf::6                       1                       # What write queue length does an incoming req see
system.mem_ctrls.wrQLenPdf::7                       1                       # What write queue length does an incoming req see
system.mem_ctrls.wrQLenPdf::8                       1                       # What write queue length does an incoming req see
system.mem_ctrls.wrQLenPdf::9                       1                       # What write queue length does an incoming req see
system.mem_ctrls.wrQLenPdf::10                      1                       # What write queue length does an incoming req see
system.mem_ctrls.wrQLenPdf::11                      1                       # What write queue length does an incoming req see
system.mem_ctrls.wrQLenPdf::12                      1                       # What write queue length does an incoming req see
system.mem_ctrls.wrQLenPdf::13                      1                       # What write queue length does an incoming req see
system.mem_ctrls.wrQLenPdf::14                      1                       # What write queue length does an incoming req see
system.mem_ctrls.wrQLenPdf::15                    676                       # What write queue length does an incoming req see
system.mem_ctrls.wrQLenPdf::16                    693                       # What write queue length does an incoming req see
system.mem_ctrls.wrQLenPdf::17                   1266                       # What write queue length does an incoming req see
system.mem_ctrls.wrQLenPdf::18                   1762                       # What write queue length does an incoming req see
system.mem_ctrls.wrQLenPdf::19                   3904                       # What write queue length does an incoming req see
system.mem_ctrls.wrQLenPdf::20                   5246                       # What write queue length does an incoming req see
system.mem_ctrls.wrQLenPdf::21                   6196                       # What write queue length does an incoming req see
system.mem_ctrls.wrQLenPdf::22                   7263                       # What write queue length does an incoming req see
system.mem_ctrls.wrQLenPdf::23                   9091                       # What write queue length does an incoming req see
system.mem_ctrls.wrQLenPdf::24                  10587                       # What write queue length does an incoming req see
system.mem_ctrls.wrQLenPdf::25                  10946                       # What write queue length does an incoming req see
system.mem_ctrls.wrQLenPdf::26                  11665                       # What write queue length does an incoming req see
system.mem_ctrls.wrQLenPdf::27                  12024                       # What write queue length does an incoming req see
system.mem_ctrls.wrQLenPdf::28                  12817                       # What write queue length does an incoming req see
system.mem_ctrls.wrQLenPdf::29                  13151                       # What write queue length does an incoming req see
system.mem_ctrls.wrQLenPdf::30                  12447                       # What write queue length does an incoming req see
system.mem_ctrls.wrQLenPdf::31                  11854                       # What write queue length does an incoming req see
system.mem_ctrls.wrQLenPdf::32                  10843                       # What write queue length does an incoming req see
system.mem_ctrls.wrQLenPdf::33                   8635                       # What write queue length does an incoming req see
system.mem_ctrls.wrQLenPdf::34                   7064                       # What write queue length does an incoming req see
system.mem_ctrls.wrQLenPdf::35                   2661                       # What write queue length does an incoming req see
system.mem_ctrls.wrQLenPdf::36                     33                       # What write queue length does an incoming req see
system.mem_ctrls.wrQLenPdf::37                     25                       # What write queue length does an incoming req see
system.mem_ctrls.wrQLenPdf::38                     18                       # What write queue length does an incoming req see
system.mem_ctrls.wrQLenPdf::39                     10                       # What write queue length does an incoming req see
system.mem_ctrls.wrQLenPdf::40                      0                       # What write queue length does an incoming req see
system.mem_ctrls.wrQLenPdf::41                      0                       # What write queue length does an incoming req see
system.mem_ctrls.wrQLenPdf::42                      0                       # What write queue length does an incoming req see
system.mem_ctrls.wrQLenPdf::43                      0                       # What write queue length does an incoming req see
system.mem_ctrls.wrQLenPdf::44                      0                       # What write queue length does an incoming req see
system.mem_ctrls.wrQLenPdf::45                      0                       # What write queue length does an incoming req see
system.mem_ctrls.wrQLenPdf::46                      0                       # What write queue length does an incoming req see
system.mem_ctrls.wrQLenPdf::47                      0                       # What write queue length does an incoming req see
system.mem_ctrls.wrQLenPdf::48                      0                       # What write queue length does an incoming req see
system.mem_ctrls.wrQLenPdf::49                      0                       # What write queue length does an incoming req see
system.mem_ctrls.wrQLenPdf::50                      0                       # What write queue length does an incoming req see
system.mem_ctrls.wrQLenPdf::51                      0                       # What write queue length does an incoming req see
system.mem_ctrls.wrQLenPdf::52                      0                       # What write queue length does an incoming req see
system.mem_ctrls.wrQLenPdf::53                      0                       # What write queue length does an incoming req see
system.mem_ctrls.wrQLenPdf::54                      0                       # What write queue length does an incoming req see
system.mem_ctrls.wrQLenPdf::55                      0                       # What write queue length does an incoming req see
system.mem_ctrls.wrQLenPdf::56                      0                       # What write queue length does an incoming req see
system.mem_ctrls.wrQLenPdf::57                      0                       # What write queue length does an incoming req see
system.mem_ctrls.wrQLenPdf::58                      0                       # What write queue length does an incoming req see
system.mem_ctrls.wrQLenPdf::59                      0                       # What write queue length does an incoming req see
system.mem_ctrls.wrQLenPdf::60                      0                       # What write queue length does an incoming req see
system.mem_ctrls.wrQLenPdf::61                      0                       # What write queue length does an incoming req see
system.mem_ctrls.wrQLenPdf::62                      0                       # What write queue length does an incoming req see
system.mem_ctrls.wrQLenPdf::63                      0                       # What write queue length does an incoming req see
system.mem_ctrls.bytesPerActivate::samples        45603                       # Bytes accessed per row activation
system.mem_ctrls.bytesPerActivate::mean    643.018749                       # Bytes accessed per row activation
system.mem_ctrls.bytesPerActivate::gmean   533.093609                       # Bytes accessed per row activation
system.mem_ctrls.bytesPerActivate::stdev   343.523838                       # Bytes accessed per row activation
system.mem_ctrls.bytesPerActivate::0-127          652      1.43%      1.43% # Bytes accessed per row activation
system.mem_ctrls.bytesPerActivate::128-255          780      1.71%      3.14% # Bytes accessed per row activation
system.mem_ctrls.bytesPerActivate::256-383        14705     32.25%     35.39% # Bytes accessed per row activation
system.mem_ctrls.bytesPerActivate::384-511         1146      2.51%     37.90% # Bytes accessed per row activation
system.mem_ctrls.bytesPerActivate::512-639         5823     12.77%     50.67% # Bytes accessed per row activation
system.mem_ctrls.bytesPerActivate::640-767         1082      2.37%     53.04% # Bytes accessed per row activation
system.mem_ctrls.bytesPerActivate::768-895         3198      7.01%     60.05% # Bytes accessed per row activation
system.mem_ctrls.bytesPerActivate::896-1023          469      1.03%     61.08% # Bytes accessed per row activation
system.mem_ctrls.bytesPerActivate::1024-1151        17748     38.92%    100.00% # Bytes accessed per row activation
system.mem_ctrls.bytesPerActivate::total        45603                       # Bytes accessed per row activation
system.mem_ctrls.rdPerTurnAround::samples         9861                       # Reads before turning the bus around for writes
system.mem_ctrls.rdPerTurnAround::mean      30.149478                       # Reads before turning the bus around for writes
system.mem_ctrls.rdPerTurnAround::gmean     21.815748                       # Reads before turning the bus around for writes
system.mem_ctrls.rdPerTurnAround::stdev    178.163147                       # Reads before turning the bus around for writes
system.mem_ctrls.rdPerTurnAround::0-1023         9857     99.96%     99.96% # Reads before turning the bus around for writes
system.mem_ctrls.rdPerTurnAround::1024-2047            3      0.03%     99.99% # Reads before turning the bus around for writes
system.mem_ctrls.rdPerTurnAround::16384-17407            1      0.01%    100.00% # Reads before turning the bus around for writes
system.mem_ctrls.rdPerTurnAround::total          9861                       # Reads before turning the bus around for writes
system.mem_ctrls.wrPerTurnAround::samples         9861                       # Writes before turning the bus around for reads
system.mem_ctrls.wrPerTurnAround::mean      16.314471                       # Writes before turning the bus around for reads
system.mem_ctrls.wrPerTurnAround::gmean     16.282015                       # Writes before turning the bus around for reads
system.mem_ctrls.wrPerTurnAround::stdev      1.101623                       # Writes before turning the bus around for reads
system.mem_ctrls.wrPerTurnAround::16             9097     92.25%     92.25% # Writes before turning the bus around for reads
system.mem_ctrls.wrPerTurnAround::17                7      0.07%     92.32% # Writes before turning the bus around for reads
system.mem_ctrls.wrPerTurnAround::18               14      0.14%     92.47% # Writes before turning the bus around for reads
system.mem_ctrls.wrPerTurnAround::19               12      0.12%     92.59% # Writes before turning the bus around for reads
system.mem_ctrls.wrPerTurnAround::20              660      6.69%     99.28% # Writes before turning the bus around for reads
system.mem_ctrls.wrPerTurnAround::21               55      0.56%     99.84% # Writes before turning the bus around for reads
system.mem_ctrls.wrPerTurnAround::22                3      0.03%     99.87% # Writes before turning the bus around for reads
[...]
system.cpu.icache.ReadReq_avg_miss_latency::.cpu.inst 95870.909091                       # average ReadReq miss latency
system.cpu.icache.ReadReq_avg_miss_latency::total 95870.909091                       # average ReadReq miss latency
system.cpu.icache.ReadReq_mshr_misses::.cpu.inst          275                       # number of ReadReq MSHR misses
system.cpu.icache.ReadReq_mshr_misses::total          275                       # number of ReadReq MSHR misses
system.cpu.icache.ReadReq_mshr_miss_latency::.cpu.inst     26089500                       # number of ReadReq MSHR miss cycles
system.cpu.icache.ReadReq_mshr_miss_latency::total     26089500                       # number of ReadReq MSHR miss cycles
system.cpu.icache.ReadReq_mshr_miss_rate::.cpu.inst     0.000039                       # mshr miss rate for ReadReq accesses
system.cpu.icache.ReadReq_mshr_miss_rate::total     0.000039                       # mshr miss rate for ReadReq accesses
system.cpu.icache.ReadReq_avg_mshr_miss_latency::.cpu.inst 94870.909091                       # average ReadReq mshr miss latency
system.cpu.icache.ReadReq_avg_mshr_miss_latency::total 94870.909091                       # average ReadReq mshr miss latency
system.cpu.icache.tags.pwrStateResidencyTicks::UNDEFINED  82444439000                       # Cumulative time (in ticks) in various power states
system.cpu.icache.tags.tagsinuse           240.410560                       # Cycle average of tags in use
system.cpu.icache.tags.total_refs             7019771                       # Total number of references to valid blocks.
system.cpu.icache.tags.sampled_refs               275                       # Sample count of references to valid blocks.
system.cpu.icache.tags.avg_refs          25526.440000                       # Average number of references to valid blocks.
system.cpu.icache.tags.warmup_cycle            102500                       # Cycle when the warmup percentage was hit.
system.cpu.icache.tags.occ_blocks::.cpu.inst   240.410560                       # Average occupied blocks per requestor
system.cpu.icache.tags.occ_percent::.cpu.inst     0.469552                       # Average percentage of cache occupancy
system.cpu.icache.tags.occ_percent::total     0.469552                       # Average percentage of cache occupancy
system.cpu.icache.tags.occ_task_id_blocks::1024          275                       # Occupied blocks per task id
system.cpu.icache.tags.age_task_id_blocks_1024::3           24                       # Occupied blocks per task id
system.cpu.icache.tags.age_task_id_blocks_1024::4          251                       # Occupied blocks per task id
system.cpu.icache.tags.occ_task_id_percent::1024     0.537109                       # Percentage of cache occupancy per task id
system.cpu.icache.tags.tag_accesses          56158443                       # Number of tag accesses
system.cpu.icache.tags.data_accesses         56158443                       # Number of data accesses
system.cpu.dtb.walker.pwrStateResidencyTicks::UNDEFINED  82444439000                       # Cumulative time (in ticks) in various power states
system.cpu.dtb.stage2_mmu.stage2_tlb.walker.pwrStateResidencyTicks::UNDEFINED  82444439000                       # Cumulative time (in ticks) in various power states
system.cpu.dcache.pwrStateResidencyTicks::UNDEFINED  82444439000                       # Cumulative time (in ticks) in various power states
system.cpu.dcache.demand_hits::.cpu.data     51262964                       # number of demand (read+write) hits
system.cpu.dcache.demand_hits::total         51262964                       # number of demand (read+write) hits
system.cpu.dcache.overall_hits::.cpu.data     51264226                       # number of overall hits
system.cpu.dcache.overall_hits::total        51264226                       # number of overall hits
system.cpu.dcache.demand_misses::.cpu.data       786005                       # number of demand (read+write) misses
system.cpu.dcache.demand_misses::total         786005                       # number of demand (read+write) misses
system.cpu.dcache.overall_misses::.cpu.data       793164                       # number of overall misses
system.cpu.dcache.overall_misses::total        793164                       # number of overall misses
system.cpu.dcache.demand_miss_latency::.cpu.data  19694335500                       # number of demand (read+write) miss cycles
system.cpu.dcache.demand_miss_latency::total  19694335500                       # number of demand (read+write) miss cycles
system.cpu.dcache.overall_miss_latency::.cpu.data  19694335500                       # number of overall miss cycles
system.cpu.dcache.overall_miss_latency::total  19694335500                       # number of overall miss cycles
system.cpu.dcache.demand_accesses::.cpu.data     52048969                       # number of demand (read+write) accesses
system.cpu.dcache.demand_accesses::total     52048969                       # number of demand (read+write) accesses
system.cpu.dcache.overall_accesses::.cpu.data     52057390                       # number of overall (read+write) accesses
system.cpu.dcache.overall_accesses::total     52057390                       # number of overall (read+write) accesses
system.cpu.dcache.demand_miss_rate::.cpu.data     0.015101                       # miss rate for demand accesses
system.cpu.dcache.demand_miss_rate::total     0.015101                       # miss rate for demand accesses
system.cpu.dcache.overall_miss_rate::.cpu.data     0.015236                       # miss rate for overall accesses
system.cpu.dcache.overall_miss_rate::total     0.015236                       # miss rate for overall accesses
system.cpu.dcache.demand_avg_miss_latency::.cpu.data 25056.247098                       # average overall miss latency
system.cpu.dcache.demand_avg_miss_latency::total 25056.247098                       # average overall miss latency
system.cpu.dcache.overall_avg_miss_latency::.cpu.data 24830.092516                       # average overall miss latency
system.cpu.dcache.overall_avg_miss_latency::total 24830.092516                       # average overall miss latency
system.cpu.dcache.blocked_cycles::no_mshrs            0                       # number of cycles access was blocked
system.cpu.dcache.blocked_cycles::no_targets            0                       # number of cycles access was blocked
system.cpu.dcache.blocked::no_mshrs                 0                       # number of cycles access was blocked
system.cpu.dcache.blocked::no_targets               0                       # number of cycles access was blocked
system.cpu.dcache.avg_blocked_cycles::no_mshrs          nan                       # average number of cycles each access was blocked
system.cpu.dcache.avg_blocked_cycles::no_targets          nan                       # average number of cycles each access was blocked
system.cpu.dcache.writebacks::.writebacks       747342                       # number of writebacks
system.cpu.dcache.writebacks::total            747342                       # number of writebacks
system.cpu.dcache.demand_mshr_hits::.cpu.data        18515                       # number of demand (read+write) MSHR hits
system.cpu.dcache.demand_mshr_hits::total        18515                       # number of demand (read+write) MSHR hits
system.cpu.dcache.overall_mshr_hits::.cpu.data        18515                       # number of overall MSHR hits
system.cpu.dcache.overall_mshr_hits::total        18515                       # number of overall MSHR hits
system.cpu.dcache.demand_mshr_misses::.cpu.data       767490                       # number of demand (read+write) MSHR misses
system.cpu.dcache.demand_mshr_misses::total       767490                       # number of demand (read+write) MSHR misses
system.cpu.dcache.overall_mshr_misses::.cpu.data       769470                       # number of overall MSHR misses
system.cpu.dcache.overall_mshr_misses::total       769470                       # number of overall MSHR misses
system.cpu.dcache.demand_mshr_miss_latency::.cpu.data  17317111500                       # number of demand (read+write) MSHR miss cycles
system.cpu.dcache.demand_mshr_miss_latency::total  17317111500                       # number of demand (read+write) MSHR miss cycles
system.cpu.dcache.overall_mshr_miss_latency::.cpu.data  17494871000                       # number of overall MSHR miss cycles
system.cpu.dcache.overall_mshr_miss_latency::total  17494871000                       # number of overall MSHR miss cycles
system.cpu.dcache.demand_mshr_miss_rate::.cpu.data     0.014746                       # mshr miss rate for demand accesses
system.cpu.dcache.demand_mshr_miss_rate::total     0.014746                       # mshr miss rate for demand accesses
system.cpu.dcache.overall_mshr_miss_rate::.cpu.data     0.014781                       # mshr miss rate for overall accesses
system.cpu.dcache.overall_mshr_miss_rate::total     0.014781                       # mshr miss rate for overall accesses
system.cpu.dcache.demand_avg_mshr_miss_latency::.cpu.data 22563.305711                       # average overall mshr miss latency
system.cpu.dcache.demand_avg_mshr_miss_latency::total 22563.305711                       # average overall mshr miss latency
system.cpu.dcache.overall_avg_mshr_miss_latency::.cpu.data 22736.261323                       # average overall mshr miss latency
system.cpu.dcache.overall_avg_mshr_miss_latency::total 22736.261323                       # average overall mshr miss latency
system.cpu.dcache.replacements                 769213                       # number of replacements
system.cpu.dcache.ReadReq_hits::.cpu.data     40656008                       # number of ReadReq hits
system.cpu.dcache.ReadReq_hits::total        40656008                       # number of ReadReq hits
system.cpu.dcache.ReadReq_misses::.cpu.data       442875                       # number of ReadReq misses
system.cpu.dcache.ReadReq_misses::total        442875                       # number of ReadReq misses
system.cpu.dcache.ReadReq_miss_latency::.cpu.data   7665824000                       # number of ReadReq miss cycles
system.cpu.dcache.ReadReq_miss_latency::total   7665824000                       # number of ReadReq miss cycles
system.cpu.dcache.ReadReq_accesses::.cpu.data     41098883                       # number of ReadReq accesses(hits+misses)
system.cpu.dcache.ReadReq_accesses::total     41098883                       # number of ReadReq accesses(hits+misses)
system.cpu.dcache.ReadReq_miss_rate::.cpu.data     0.010776                       # miss rate for ReadReq accesses
system.cpu.dcache.ReadReq_miss_rate::total     0.010776                       # miss rate for ReadReq accesses
system.cpu.dcache.ReadReq_avg_miss_latency::.cpu.data 17309.227209                       # average ReadReq miss latency
system.cpu.dcache.ReadReq_avg_miss_latency::total 17309.227209                       # average ReadReq miss latency
system.cpu.dcache.ReadReq_mshr_hits::.cpu.data         1978                       # number of ReadReq MSHR hits
system.cpu.dcache.ReadReq_mshr_hits::total         1978                       # number of ReadReq MSHR hits
system.cpu.dcache.ReadReq_mshr_misses::.cpu.data       440897                       # number of ReadReq MSHR misses
system.cpu.dcache.ReadReq_mshr_misses::total       440897                       # number of ReadReq MSHR misses
system.cpu.dcache.ReadReq_mshr_miss_latency::.cpu.data   7071054500                       # number of ReadReq MSHR miss cycles
system.cpu.dcache.ReadReq_mshr_miss_latency::total   7071054500                       # number of ReadReq MSHR miss cycles
system.cpu.dcache.ReadReq_mshr_miss_rate::.cpu.data     0.010728                       # mshr miss rate for ReadReq accesses
system.cpu.dcache.ReadReq_mshr_miss_rate::total     0.010728                       # mshr miss rate for ReadReq accesses
system.cpu.dcache.ReadReq_avg_mshr_miss_latency::.cpu.data 16037.882998                       # average ReadReq mshr miss latency
system.cpu.dcache.ReadReq_avg_mshr_miss_latency::total 16037.882998                       # average ReadReq mshr miss latency
system.cpu.dcache.WriteReq_hits::.cpu.data     10606956                       # number of WriteReq hits
system.cpu.dcache.WriteReq_hits::total       10606956                       # number of WriteReq hits
system.cpu.dcache.WriteReq_misses::.cpu.data       343130                       # number of WriteReq misses
system.cpu.dcache.WriteReq_misses::total       343130                       # number of WriteReq misses
system.cpu.dcache.WriteReq_miss_latency::.cpu.data  12028511500                       # number of WriteReq miss cycles
system.cpu.dcache.WriteReq_miss_latency::total  12028511500                       # number of WriteReq miss cycles
system.cpu.dcache.WriteReq_accesses::.cpu.data     10950086                       # number of WriteReq accesses(hits+misses)
system.cpu.dcache.WriteReq_accesses::total     10950086                       # number of WriteReq accesses(hits+misses)
system.cpu.dcache.WriteReq_miss_rate::.cpu.data     0.031336                       # miss rate for WriteReq accesses
system.cpu.dcache.WriteReq_miss_rate::total     0.031336                       # miss rate for WriteReq accesses
system.cpu.dcache.WriteReq_avg_miss_latency::.cpu.data 35055.260397                       # average WriteReq miss latency
system.cpu.dcache.WriteReq_avg_miss_latency::total 35055.260397                       # average WriteReq miss latency
system.cpu.dcache.WriteReq_mshr_hits::.cpu.data        16537                       # number of WriteReq MSHR hits
system.cpu.dcache.WriteReq_mshr_hits::total        16537                       # number of WriteReq MSHR hits
system.cpu.dcache.WriteReq_mshr_misses::.cpu.data       326593                       # number of WriteReq MSHR misses
system.cpu.dcache.WriteReq_mshr_misses::total       326593                       # number of WriteReq MSHR misses
system.cpu.dcache.WriteReq_mshr_miss_latency::.cpu.data  10246057000                       # number of WriteReq MSHR miss cycles
system.cpu.dcache.WriteReq_mshr_miss_latency::total  10246057000                       # number of WriteReq MSHR miss cycles
system.cpu.dcache.WriteReq_mshr_miss_rate::.cpu.data     0.029826                       # mshr miss rate for WriteReq accesses
system.cpu.dcache.WriteReq_mshr_miss_rate::total     0.029826                       # mshr miss rate for WriteReq accesses
system.cpu.dcache.WriteReq_avg_mshr_miss_latency::.cpu.data 31372.555444                       # average WriteReq mshr miss latency
system.cpu.dcache.WriteReq_avg_mshr_miss_latency::total 31372.555444                       # average WriteReq mshr miss latency
system.cpu.dcache.SoftPFReq_hits::.cpu.data         1262                       # number of SoftPFReq hits
system.cpu.dcache.SoftPFReq_hits::total          1262                       # number of SoftPFReq hits
system.cpu.dcache.SoftPFReq_misses::.cpu.data         7159                       # number of SoftPFReq misses
system.cpu.dcache.SoftPFReq_misses::total         7159                       # number of SoftPFReq misses
system.cpu.dcache.SoftPFReq_accesses::.cpu.data         8421                       # number of SoftPFReq accesses(hits+misses)
system.cpu.dcache.SoftPFReq_accesses::total         8421                       # number of SoftPFReq accesses(hits+misses)
system.cpu.dcache.SoftPFReq_miss_rate::.cpu.data     0.850137                       # miss rate for SoftPFReq accesses
system.cpu.dcache.SoftPFReq_miss_rate::total     0.850137                       # miss rate for SoftPFReq accesses
system.cpu.dcache.SoftPFReq_mshr_misses::.cpu.data         1980                       # number of SoftPFReq MSHR misses
system.cpu.dcache.SoftPFReq_mshr_misses::total         1980                       # number of SoftPFReq MSHR misses
system.cpu.dcache.SoftPFReq_mshr_miss_latency::.cpu.data    177759500                       # number of SoftPFReq MSHR miss cycles
system.cpu.dcache.SoftPFReq_mshr_miss_latency::total    177759500                       # number of SoftPFReq MSHR miss cycles
system.cpu.dcache.SoftPFReq_mshr_miss_rate::.cpu.data     0.235126                       # mshr miss rate for SoftPFReq accesses
system.cpu.dcache.SoftPFReq_mshr_miss_rate::total     0.235126                       # mshr miss rate for SoftPFReq accesses
system.cpu.dcache.SoftPFReq_avg_mshr_miss_latency::.cpu.data 89777.525253                       # average SoftPFReq mshr miss latency
system.cpu.dcache.SoftPFReq_avg_mshr_miss_latency::total 89777.525253                       # average SoftPFReq mshr miss latency
system.cpu.dcache.LoadLockedReq_hits::.cpu.data           38                       # number of LoadLockedReq hits
system.cpu.dcache.LoadLockedReq_hits::total           38                       # number of LoadLockedReq hits
system.cpu.dcache.LoadLockedReq_accesses::.cpu.data           38                       # number of LoadLockedReq accesses(hits+misses)
system.cpu.dcache.LoadLockedReq_accesses::total           38                       # number of LoadLockedReq accesses(hits+misses)
system.cpu.dcache.StoreCondReq_hits::.cpu.data           38                       # number of StoreCondReq hits
system.cpu.dcache.StoreCondReq_hits::total           38                       # number of StoreCondReq hits
system.cpu.dcache.StoreCondReq_accesses::.cpu.data           38                       # number of StoreCondReq accesses(hits+misses)
system.cpu.dcache.StoreCondReq_accesses::total           38                       # number of StoreCondReq accesses(hits+misses)
system.cpu.dcache.tags.pwrStateResidencyTicks::UNDEFINED  82444439000                       # Cumulative time (in ticks) in various power states
system.cpu.dcache.tags.tagsinuse           252.004105                       # Cycle average of tags in use
system.cpu.dcache.tags.total_refs            52033771                       # Total number of references to valid blocks.
system.cpu.dcache.tags.sampled_refs            769469                       # Sample count of references to valid blocks.
system.cpu.dcache.tags.avg_refs             67.622959                       # Average number of references to valid blocks.
system.cpu.dcache.tags.warmup_cycle            210500                       # Cycle when the warmup percentage was hit.
system.cpu.dcache.tags.occ_blocks::.cpu.data   252.004105                       # Average occupied blocks per requestor
system.cpu.dcache.tags.occ_percent::.cpu.data     0.984391                       # Average percentage of cache occupancy
system.cpu.dcache.tags.occ_percent::total     0.984391                       # Average percentage of cache occupancy
system.cpu.dcache.tags.occ_task_id_blocks::1024          256                       # Occupied blocks per task id
system.cpu.dcache.tags.age_task_id_blocks_1024::0          190                       # Occupied blocks per task id
system.cpu.dcache.tags.age_task_id_blocks_1024::1           65                       # Occupied blocks per task id
system.cpu.dcache.tags.age_task_id_blocks_1024::2            1                       # Occupied blocks per task id
system.cpu.dcache.tags.occ_task_id_percent::1024            1                       # Percentage of cache occupancy per task id
system.cpu.dcache.tags.tag_accesses         104884401                       # Number of tag accesses
system.cpu.dcache.tags.data_accesses        104884401                       # Number of data accesses
system.cpu.itb.walker.pwrStateResidencyTicks::UNDEFINED  82444439000                       # Cumulative time (in ticks) in various power states
system.cpu.itb.stage2_mmu.stage2_tlb.walker.pwrStateResidencyTicks::UNDEFINED  82444439000                       # Cumulative time (in ticks) in various power states

---------- End Simulation Statistics   ----------
