
---------- Begin Simulation Statistics ----------
final_tick                                67352664000                       # Number of ticks from beginning of simulation (restored from checkpoints and never reset)
host_inst_rate                                 453272                       # Simulator instruction rate (inst/s)
host_mem_usage                                 676688                       # Number of bytes of host memory used
host_op_rate                                   458270                       # Simulator op (including micro ops) rate (op/s)
host_seconds                                   220.62                       # Real time elapsed on the host
host_tick_rate                              305290385                       # Simulator tick rate (ticks/s)
sim_freq                                 1000000000000                       # Frequency of simulated ticks
sim_insts                                   100000000                       # Number of instructions simulated
sim_ops                                     101102729                       # Number of ops (including micro ops) simulated
sim_seconds                                  0.067353                       # Number of seconds simulated
sim_ticks                                 67352664000                       # Number of ticks simulated
system.cpu.branchPred.BTBCorrect                    0                       # Number of correct BTB predictions (this stat may not work properly.
system.cpu.branchPred.BTBHitPct             84.201989                       # BTB Hit Percentage
system.cpu.branchPred.BTBHits                 4086512                       # Number of BTB hits
system.cpu.branchPred.BTBLookups              4853225                       # Number of BTB lookups
system.cpu.branchPred.RASInCorrect                 17                       # Number of incorrect RAS predictions.
system.cpu.branchPred.condIncorrect            352168                       # Number of conditional branches incorrect
system.cpu.branchPred.condPredicted           5098473                       # Number of conditional branches predicted
system.cpu.branchPred.indirectHits             102874                       # Number of indirect target hits.
system.cpu.branchPred.indirectLookups          676434                       # Number of indirect predictor lookups.
system.cpu.branchPred.indirectMisses           573560                       # Number of indirect misses.
system.cpu.branchPred.lookups                 6505486                       # Number of BP lookups
system.cpu.branchPred.usedRAS                  312468                       # Number of times the RAS was used to get a target.
system.cpu.branchPredindirectMispredicted        37623                       # Number of mispredicted indirect branches.
system.cpu.committedInsts                   100000000                       # Number of instructions committed
system.cpu.committedOps                     101102729                       # Number of ops (including micro ops) committed
system.cpu.cpi                               1.347053                       # CPI: cycles per instruction
system.cpu.discardedOps                        979778                       # Number of ops (including micro ops) which were discarded before commit
system.cpu.dtb.accesses                             0                       # DTB accesses
system.cpu.dtb.align_faults                         0                       # Number of TLB faults due to alignment restrictions
system.cpu.dtb.domain_faults                        0                       # Number of TLB faults due to domain restrictions
system.cpu.dtb.flush_entries                        0                       # Number of entries that have been flushed from TLB
system.cpu.dtb.flush_tlb                            0                       # Number of times complete TLB was flushed
system.cpu.dtb.flush_tlb_asid                       0                       # Number of times TLB was flushed by ASID
system.cpu.dtb.flush_tlb_mva                        0                       # Number of times TLB was flushed by MVA
system.cpu.dtb.flush_tlb_mva_asid                   0                       # Number of times TLB was flushed by MVA & ASID
system.cpu.dtb.hits                                 0                       # DTB hits
system.cpu.dtb.inst_accesses                        0                       # ITB inst accesses
system.cpu.dtb.inst_hits                            0                       # ITB inst hits
system.cpu.dtb.inst_misses                          0                       # ITB inst misses
system.cpu.dtb.misses                               0                       # DTB misses
system.cpu.dtb.perms_faults                         0                       # Number of TLB faults due to permissions restrictions
system.cpu.dtb.prefetch_faults                      0                       # Number of TLB faults due to prefetch
system.cpu.dtb.read_accesses                        0                       # DTB read accesses
system.cpu.dtb.read_hits                            0                       # DTB read hits
system.cpu.dtb.read_misses                          0                       # DTB read misses
system.cpu.dtb.stage2_mmu.stage2_tlb.accesses            0                       # DTB accesses
system.cpu.dtb.stage2_mmu.stage2_tlb.align_faults            0                       # Number of TLB faults due to alignment restrictions
system.cpu.dtb.stage2_mmu.stage2_tlb.domain_faults            0                       # Number of TLB faults due to domain restrictions
system.cpu.dtb.stage2_mmu.stage2_tlb.flush_entries            0                       # Number of entries that have been flushed from TLB
system.cpu.dtb.stage2_mmu.stage2_tlb.flush_tlb            0                       # Number of times complete TLB was flushed
system.cpu.dtb.stage2_mmu.stage2_tlb.flush_tlb_asid            0                       # Number of times TLB was flushed by ASID
system.cpu.dtb.stage2_mmu.stage2_tlb.flush_tlb_mva            0                       # Number of times TLB was flushed by MVA
system.cpu.dtb.stage2_mmu.stage2_tlb.flush_tlb_mva_asid            0                       # Number of times TLB was flushed by MVA & ASID
system.cpu.dtb.stage2_mmu.stage2_tlb.hits            0                       # DTB hits
system.cpu.dtb.stage2_mmu.stage2_tlb.inst_accesses            0                       # ITB inst accesses
system.cpu.dtb.stage2_mmu.stage2_tlb.inst_hits            0                       # ITB inst hits
system.cpu.dtb.stage2_mmu.stage2_tlb.inst_misses            0                       # ITB inst misses
system.cpu.dtb.stage2_mmu.stage2_tlb.misses            0                       # DTB misses
system.cpu.dtb.stage2_mmu.stage2_tlb.perms_faults            0                       # Number of TLB faults due to permissions restrictions
system.cpu.dtb.stage2_mmu.stage2_tlb.prefetch_faults            0                       # Number of TLB faults due to prefetch
system.cpu.dtb.stage2_mmu.stage2_tlb.read_accesses            0                       # DTB read accesses
system.cpu.dtb.stage2_mmu.stage2_tlb.read_hits            0                       # DTB read hits
system.cpu.dtb.stage2_mmu.stage2_tlb.read_misses            0                       # DTB read misses
system.cpu.dtb.stage2_mmu.stage2_tlb.walker.walkRequestOrigin_Requested::Data            0                       # Table walker requests started/completed, data/inst
system.cpu.dtb.stage2_mmu.stage2_tlb.walker.walkRequestOrigin_Requested::Inst            0                       # Table walker requests started/completed, data/inst
system.cpu.dtb.stage2_mmu.stage2_tlb.walker.walkRequestOrigin_Requested::total            0                       # Table walker requests started/completed, data/inst
system.cpu.dtb.stage2_mmu.stage2_tlb.walker.walkRequestOrigin_Completed::Data            0                       # Table walker requests started/completed, data/inst
system.cpu.dtb.stage2_mmu.stage2_tlb.walker.walkRequestOrigin_Completed::Inst            0                       # Table walker requests started/completed, data/inst
system.cpu.dtb.stage2_mmu.stage2_tlb.walker.walkRequestOrigin_Completed::total            0                       # Table walker requests started/completed, data/inst
system.cpu.dtb.stage2_mmu.stage2_tlb.walker.walkRequestOrigin::total            0                       # Table walker requests started/completed, data/inst
system.cpu.dtb.stage2_mmu.stage2_tlb.walker.walks            0                       # Table walker walks requested
system.cpu.dtb.stage2_mmu.stage2_tlb.write_accesses            0                       # DTB write accesses
system.cpu.dtb.stage2_mmu.stage2_tlb.write_hits            0                       # DTB write hits
system.cpu.dtb.stage2_mmu.stage2_tlb.write_misses            0                       # DTB write misses
system.cpu.dtb.walker.walkRequestOrigin_Requested::Data            0                       # Table walker requests started/completed, data/inst
system.cpu.dtb.walker.walkRequestOrigin_Requested::Inst            0                       # Table walker requests started/completed, data/inst
system.cpu.dtb.walker.walkRequestOrigin_Requested::total            0                       # Table walker requests started/completed, data/inst
system.cpu.dtb.walker.walkRequestOrigin_Completed::Data            0                       # Table walker requests started/completed, data/inst
system.cpu.dtb.walker.walkRequestOrigin_Completed::Inst            0                       # Table walker requests started/completed, data/inst
system.cpu.dtb.walker.walkRequestOrigin_Completed::total            0                       # Table walker requests started/completed, data/inst
system.cpu.dtb.walker.walkRequestOrigin::total            0                       # Table walker requests started/completed, data/inst
system.cpu.dtb.walker.walks                         0                       # Table walker walks requested
system.cpu.dtb.write_accesses                       0                       # DTB write accesses
system.cpu.dtb.write_hits                           0                       # DTB write hits
system.cpu.dtb.write_misses                         0                       # DTB write misses
system.cpu.fetch2.amo_instructions                  0                       # Number of memory atomic instructions successfully decoded
system.cpu.fetch2.fp_instructions                   0                       # Number of floating point instructions successfully decoded
system.cpu.fetch2.int_instructions           48948700                       # Number of integer instructions successfully decoded
system.cpu.fetch2.load_instructions          40614819                       # Number of memory load instructions successfully decoded
system.cpu.fetch2.store_instructions          6267863                       # Number of memory store instructions successfully decoded
system.cpu.fetch2.vec_instructions                  0                       # Number of SIMD instructions successfully decoded
system.cpu.idleCycles                        17641492                       # Total number of cycles that the object has spent stopped
system.cpu.ipc                               0.742361                       # IPC: instructions per cycle
system.cpu.itb.accesses                             0                       # DTB accesses
system.cpu.itb.align_faults                         0                       # Number of TLB faults due to alignment restrictions
system.cpu.itb.domain_faults                        0                       # Number of TLB faults due to domain restrictions
system.cpu.itb.flush_entries                        0                       # Number of entries that have been flushed from TLB
system.cpu.itb.flush_tlb                            0                       # Number of times complete TLB was flushed
system.cpu.itb.flush_tlb_asid                       0                       # Number of times TLB was flushed by ASID
system.cpu.itb.flush_tlb_mva                        0                       # Number of times TLB was flushed by MVA
system.cpu.itb.flush_tlb_mva_asid                   0                       # Number of times TLB was flushed by MVA & ASID
system.cpu.itb.hits                                 0                       # DTB hits
system.cpu.itb.inst_accesses                        0                       # ITB inst accesses
system.cpu.itb.inst_hits                            0                       # ITB inst hits
system.cpu.itb.inst_misses                          0                       # ITB inst misses
system.cpu.itb.misses                               0                       # DTB misses
system.cpu.itb.perms_faults                         0                       # Number of TLB faults due to permissions restrictions
system.cpu.itb.prefetch_faults                      0                       # Number of TLB faults due to prefetch
system.cpu.itb.read_accesses                        0                       # DTB read accesses
system.cpu.itb.read_hits                            0                       # DTB read hits
system.cpu.itb.read_misses                          0                       # DTB read misses
system.cpu.itb.stage2_mmu.stage2_tlb.accesses            0                       # DTB accesses
system.cpu.itb.stage2_mmu.stage2_tlb.align_faults            0                       # Number of TLB faults due to alignment restrictions
system.cpu.itb.stage2_mmu.stage2_tlb.domain_faults            0                       # Number of TLB faults due to domain restrictions
system.cpu.itb.stage2_mmu.stage2_tlb.flush_entries            0                       # Number of entries that have been flushed from TLB
system.cpu.itb.stage2_mmu.stage2_tlb.flush_tlb            0                       # Number of times complete TLB was flushed
system.cpu.itb.stage2_mmu.stage2_tlb.flush_tlb_asid            0                       # Number of times TLB was flushed by ASID
system.cpu.itb.stage2_mmu.stage2_tlb.flush_tlb_mva            0                       # Number of times TLB was flushed by MVA
system.cpu.itb.stage2_mmu.stage2_tlb.flush_tlb_mva_asid            0                       # Number of times TLB was flushed by MVA & ASID
system.cpu.itb.stage2_mmu.stage2_tlb.hits            0                       # DTB hits
system.cpu.itb.stage2_mmu.stage2_tlb.inst_accesses            0                       # ITB inst accesses
system.cpu.itb.stage2_mmu.stage2_tlb.inst_hits            0                       # ITB inst hits
system.cpu.itb.stage2_mmu.stage2_tlb.inst_misses            0                       # ITB inst misses
system.cpu.itb.stage2_mmu.stage2_tlb.misses            0                       # DTB misses
system.cpu.itb.stage2_mmu.stage2_tlb.perms_faults            0                       # Number of TLB faults due to permissions restrictions
system.cpu.itb.stage2_mmu.stage2_tlb.prefetch_faults            0                       # Number of TLB faults due to prefetch
system.cpu.itb.stage2_mmu.stage2_tlb.read_accesses            0                       # DTB read accesses
system.cpu.itb.stage2_mmu.stage2_tlb.read_hits            0                       # DTB read hits
system.cpu.itb.stage2_mmu.stage2_tlb.read_misses            0                       # DTB read misses
system.cpu.itb.stage2_mmu.stage2_tlb.walker.walkRequestOrigin_Requested::Data            0                       # Table walker requests started/completed, data/inst
system.cpu.itb.stage2_mmu.stage2_tlb.walker.walkRequestOrigin_Requested::Inst            0                       # Table walker requests started/completed, data/inst
system.cpu.itb.stage2_mmu.stage2_tlb.walker.walkRequestOrigin_Requested::total            0                       # Table walker requests started/completed, data/inst
system.cpu.itb.stage2_mmu.stage2_tlb.walker.walkRequestOrigin_Completed::Data            0                       # Table walker requests started/completed, data/inst
system.cpu.itb.stage2_mmu.stage2_tlb.walker.walkRequestOrigin_Completed::Inst            0                       # Table walker requests started/completed, data/inst
system.cpu.itb.stage2_mmu.stage2_tlb.walker.walkRequestOrigin_Completed::total            0                       # Table walker requests started/completed, data/inst
system.cpu.itb.stage2_mmu.stage2_tlb.walker.walkRequestOrigin::total            0                       # Table walker requests started/completed, data/inst
system.cpu.itb.stage2_mmu.stage2_tlb.walker.walks            0                       # Table walker walks requested
system.cpu.itb.stage2_mmu.stage2_tlb.write_accesses            0                       # DTB write accesses
system.cpu.itb.stage2_mmu.stage2_tlb.write_hits            0                       # DTB write hits
system.cpu.itb.stage2_mmu.stage2_tlb.write_misses            0                       # DTB write misses
system.cpu.itb.walker.walkRequestOrigin_Requested::Data            0                       # Table walker requests started/completed, data/inst
system.cpu.itb.walker.walkRequestOrigin_Requested::Inst            0                       # Table walker requests started/completed, data/inst
system.cpu.itb.walker.walkRequestOrigin_Requested::total            0                       # Table walker requests started/completed, data/inst
system.cpu.itb.walker.walkRequestOrigin_Completed::Data            0                       # Table walker requests started/completed, data/inst
system.cpu.itb.walker.walkRequestOrigin_Completed::Inst            0                       # Table walker requests started/completed, data/inst
system.cpu.itb.walker.walkRequestOrigin_Completed::total            0                       # Table walker requests started/completed, data/inst
system.cpu.itb.walker.walkRequestOrigin::total            0                       # Table walker requests started/completed, data/inst
system.cpu.itb.walker.walks                         0                       # Table walker walks requested
system.cpu.itb.write_accesses                       0                       # DTB write accesses
system.cpu.itb.write_hits                           0                       # DTB write hits
system.cpu.itb.write_misses                         0                       # DTB write misses
system.cpu.numCycles                        134705328                       # number of cpu cycles simulated
system.cpu.numFetchSuspends                         0                       # Number of times Execute suspended instruction fetching
system.cpu.numWorkItemsCompleted                    0                       # number of work items this cpu completed
system.cpu.numWorkItemsStarted                      0                       # number of work items this cpu started
system.cpu.op_class_0::No_OpClass                   0      0.00%      0.00% # Class of committed instruction
system.cpu.op_class_0::IntAlu                55115655     54.51%     54.51% # Class of committed instruction
system.cpu.op_class_0::IntMult                 167845      0.17%     54.68% # Class of committed instruction
system.cpu.op_class_0::IntDiv                       0      0.00%     54.68% # Class of committed instruction
system.cpu.op_class_0::FloatAdd                     0      0.00%     54.68% # Class of committed instruction
system.cpu.op_class_0::FloatCmp                     0      0.00%     54.68% # Class of committed instruction
system.cpu.op_class_0::FloatCvt                     0      0.00%     54.68% # Class of committed instruction
system.cpu.op_class_0::FloatMult                    0      0.00%     54.68% # Class of committed instruction
system.cpu.op_class_0::FloatMultAcc                 0      0.00%     54.68% # Class of committed instruction
system.cpu.op_class_0::FloatDiv                     0      0.00%     54.68% # Class of committed instruction
system.cpu.op_class_0::FloatMisc                    0      0.00%     54.68% # Class of committed instruction
system.cpu.op_class_0::FloatSqrt                    0      0.00%     54.68% # Class of committed instruction
system.cpu.op_class_0::SimdAdd                    380      0.00%     54.68% # Class of committed instruction
system.cpu.op_class_0::SimdAddAcc                   0      0.00%     54.68% # Class of committed instruction
system.cpu.op_class_0::SimdAlu                    470      0.00%     54.68% # Class of committed instruction
system.cpu.op_class_0::SimdCmp                    382      0.00%     54.68% # Class of committed instruction
system.cpu.op_class_0::SimdCvt                      0      0.00%     54.68% # Class of committed instruction
system.cpu.op_class_0::SimdMisc                    53      0.00%     54.68% # Class of committed instruction
system.cpu.op_class_0::SimdMult                     0      0.00%     54.68% # Class of committed instruction
system.cpu.op_class_0::SimdMultAcc                  0      0.00%     54.68% # Class of committed instruction
system.cpu.op_class_0::SimdShift                    0      0.00%     54.68% # Class of committed instruction
system.cpu.op_class_0::SimdShiftAcc                 0      0.00%     54.68% # Class of committed instruction
system.cpu.op_class_0::SimdDiv                      0      0.00%     54.68% # Class of committed instruction
system.cpu.op_class_0::SimdSqrt                     0      0.00%     54.68% # Class of committed instruction
system.cpu.op_class_0::SimdFloatAdd            267609      0.26%     54.95% # Class of committed instruction
system.cpu.op_class_0::SimdFloatAlu                 0      0.00%     54.95% # Class of committed instruction
system.cpu.op_class_0::SimdFloatCmp            259630      0.26%     55.20% # Class of committed instruction
system.cpu.op_class_0::SimdFloatCvt            161456      0.16%     55.36% # Class of committed instruction
system.cpu.op_class_0::SimdFloatDiv             54308      0.05%     55.42% # Class of committed instruction
system.cpu.op_class_0::SimdFloatMisc           483618      0.48%     55.90% # Class of committed instruction
system.cpu.op_class_0::SimdFloatMult            33524      0.03%     55.93% # Class of committed instruction
system.cpu.op_class_0::SimdFloatMultAcc         11115      0.01%     55.94% # Class of committed instruction
system.cpu.op_class_0::SimdFloatSqrt                0      0.00%     55.94% # Class of committed instruction
system.cpu.op_class_0::SimdReduceAdd                0      0.00%     55.94% # Class of committed instruction
system.cpu.op_class_0::SimdReduceAlu                0      0.00%     55.94% # Class of committed instruction
system.cpu.op_class_0::SimdReduceCmp                0      0.00%     55.94% # Class of committed instruction
system.cpu.op_class_0::SimdFloatReduceAdd            0      0.00%     55.94% # Class of committed instruction
system.cpu.op_class_0::SimdFloatReduceCmp            0      0.00%     55.94% # Class of committed instruction
system.cpu.op_class_0::SimdAes                      0      0.00%     55.94% # Class of committed instruction
system.cpu.op_class_0::SimdAesMix                   0      0.00%     55.94% # Class of committed instruction
system.cpu.op_class_0::SimdSha1Hash                 0      0.00%     55.94% # Class of committed instruction
system.cpu.op_class_0::SimdSha1Hash2                0      0.00%     55.94% # Class of committed instruction
system.cpu.op_class_0::SimdSha256Hash               0      0.00%     55.94% # Class of committed instruction
system.cpu.op_class_0::SimdSha256Hash2              0      0.00%     55.94% # Class of committed instruction
system.cpu.op_class_0::SimdShaSigma2                0      0.00%     55.94% # Class of committed instruction
system.cpu.op_class_0::SimdShaSigma3                0      0.00%     55.94% # Class of committed instruction
system.cpu.op_class_0::SimdPredAlu                  0      0.00%     55.94% # Class of committed instruction
system.cpu.op_class_0::MemRead               38167638     37.75%     93.69% # Class of committed instruction
system.cpu.op_class_0::MemWrite               6379046      6.31%    100.00% # Class of committed instruction
system.cpu.op_class_0::FloatMemRead                 0      0.00%    100.00% # Class of committed instruction
system.cpu.op_class_0::FloatMemWrite                0      0.00%    100.00% # Class of committed instruction
system.cpu.op_class_0::IprAccess                    0      0.00%    100.00% # Class of committed instruction
system.cpu.op_class_0::InstPrefetch                 0      0.00%    100.00% # Class of committed instruction
system.cpu.op_class_0::total                101102729                       # Class of committed instruction
system.cpu.tickCycles                       117063836                       # Number of cycles that the object actually ticked
system.cpu.workload.numSyscalls                    32                       # Number of system calls
system.membus.snoop_filter.hit_multi_requests            0                       # Number of requests hitting in the snoop filter with multiple (>1) holders of the requested data.
system.membus.snoop_filter.hit_multi_snoops            0                       # Number of snoops hitting in the snoop filter with multiple (>1) holders of the requested data.
system.membus.snoop_filter.hit_single_requests           45                       # Number of requests hitting in the snoop filter with a single holder of the requested data.
system.membus.snoop_filter.hit_single_snoops            0                       # Number of snoops hitting in the snoop filter with a single holder of the requested data.
system.membus.snoop_filter.tot_requests          1659                       # Total number of requests made to the snoop filter.
system.membus.snoop_filter.tot_snoops               0                       # Total number of snoops made to the snoop filter.
system.tol2bus.snoop_filter.hit_multi_requests         2390                       # Number of requests hitting in the snoop filter with multiple (>1) holders of the requested data.
system.tol2bus.snoop_filter.hit_multi_snoops            0                       # Number of snoops hitting in the snoop filter with multiple (>1) holders of the requested data.
system.tol2bus.snoop_filter.hit_single_requests       534372                       # Number of requests hitting in the snoop filter with a single holder of the requested data.
system.tol2bus.snoop_filter.hit_single_snoops            1                       # Number of snoops hitting in the snoop filter with a single holder of the requested data.
system.tol2bus.snoop_filter.tot_requests      1068936                       # Total number of requests made to the snoop filter.
system.tol2bus.snoop_filter.tot_snoops              1                       # Total number of snoops made to the snoop filter.
system.membus.pwrStateResidencyTicks::UNDEFINED  67352664000                       # Cumulative time (in ticks) in various power states
system.membus.trans_dist::ReadResp                679                       # Transaction distribution
system.membus.trans_dist::WritebackDirty            1                       # Transaction distribution
system.membus.trans_dist::CleanEvict               44                       # Transaction distribution
system.membus.trans_dist::ReadExReq               935                       # Transaction distribution
system.membus.trans_dist::ReadExResp              935                       # Transaction distribution
system.membus.trans_dist::ReadSharedReq           679                       # Transaction distribution
system.membus.pkt_count_system.l2.mem_side::system.mem_ctrls.port         3273                       # Packet count per connected master and slave (bytes)
system.membus.pkt_count::total                   3273                       # Packet count per connected master and slave (bytes)
system.membus.pkt_size_system.l2.mem_side::system.mem_ctrls.port       413440                       # Cumulative packet size per connected master and slave (bytes)
system.membus.pkt_size::total                  413440                       # Cumulative packet size per connected master and slave (bytes)
system.membus.snoops                                0                       # Total snoops (count)
system.membus.snoopTraffic                          0                       # Total snoop traffic (bytes)
system.membus.snoop_fanout::samples              1614                       # Request fanout histogram
system.membus.snoop_fanout::mean                    0                       # Request fanout histogram
system.membus.snoop_fanout::stdev                   0                       # Request fanout histogram
system.membus.snoop_fanout::underflows              0      0.00%      0.00% # Request fanout histogram
system.membus.snoop_fanout::0                    1614    100.00%    100.00% # Request fanout histogram
system.membus.snoop_fanout::1                       0      0.00%    100.00% # Request fanout histogram
system.membus.snoop_fanout::overflows               0      0.00%    100.00% # Request fanout histogram
system.membus.snoop_fanout::min_value               0                       # Request fanout histogram
system.membus.snoop_fanout::max_value               0                       # Request fanout histogram
system.membus.snoop_fanout::total                1614                       # Request fanout histogram
system.membus.respLayer1.occupancy           28086500                       # Layer occupancy (ticks)
system.membus.respLayer1.utilization              0.0                       # Layer utilization (%)
system.membus.reqLayer0.occupancy             2111000                       # Layer occupancy (ticks)
system.membus.reqLayer0.utilization               0.0                       # Layer utilization (%)
system.tol2bus.pwrStateResidencyTicks::UNDEFINED  67352664000                       # Cumulative time (in ticks) in various power states
system.tol2bus.trans_dist::ReadResp            424437                       # Transaction distribution
system.tol2bus.trans_dist::WritebackDirty       522555                       # Transaction distribution
system.tol2bus.trans_dist::WritebackClean         6587                       # Transaction distribution
system.tol2bus.trans_dist::CleanEvict            5276                       # Transaction distribution
system.tol2bus.trans_dist::ReadExReq           110127                       # Transaction distribution
system.tol2bus.trans_dist::ReadExResp          110127                       # Transaction distribution
system.tol2bus.trans_dist::ReadCleanReq          6715                       # Transaction distribution
system.tol2bus.trans_dist::ReadSharedReq       417722                       # Transaction distribution
system.tol2bus.pkt_count_system.cpu.icache.mem_side::system.l2.cpu_side        20017                       # Packet count per connected master and slave (bytes)
system.tol2bus.pkt_count_system.cpu.dcache.mem_side::system.l2.cpu_side      1583483                       # Packet count per connected master and slave (bytes)
system.tol2bus.pkt_count::total               1603500                       # Packet count per connected master and slave (bytes)
system.tol2bus.pkt_size_system.cpu.icache.mem_side::system.l2.cpu_side      3405312                       # Cumulative packet size per connected master and slave (bytes)
system.tol2bus.pkt_size_system.cpu.dcache.mem_side::system.l2.cpu_side    268903168                       # Cumulative packet size per connected master and slave (bytes)
system.tol2bus.pkt_size::total              272308480                       # Cumulative packet size per connected master and slave (bytes)
system.tol2bus.snoops                              46                       # Total snoops (count)
system.tol2bus.snoopTraffic                       256                       # Total snoop traffic (bytes)
system.tol2bus.snoop_fanout::samples           534610                       # Request fanout histogram
system.tol2bus.snoop_fanout::mean            0.004472                       # Request fanout histogram
system.tol2bus.snoop_fanout::stdev           0.066726                       # Request fanout histogram
system.tol2bus.snoop_fanout::underflows             0      0.00%      0.00% # Request fanout histogram
system.tol2bus.snoop_fanout::0                 532219     99.55%     99.55% # Request fanout histogram
system.tol2bus.snoop_fanout::1                   2391      0.45%    100.00% # Request fanout histogram
system.tol2bus.snoop_fanout::2                      0      0.00%    100.00% # Request fanout histogram
system.tol2bus.snoop_fanout::overflows              0      0.00%    100.00% # Request fanout histogram
system.tol2bus.snoop_fanout::min_value              0                       # Request fanout histogram
system.tol2bus.snoop_fanout::max_value              1                       # Request fanout histogram
system.tol2bus.snoop_fanout::total             534610                       # Request fanout histogram
system.tol2bus.reqLayer0.occupancy         2651032000                       # Layer occupancy (ticks)
system.tol2bus.reqLayer0.utilization              3.9                       # Layer utilization (%)
system.tol2bus.respLayer1.occupancy        2375324492                       # Layer occupancy (ticks)
system.tol2bus.respLayer1.utilization             3.5                       # Layer utilization (%)
system.tol2bus.respLayer0.occupancy          30218997                       # Layer occupancy (ticks)
system.tol2bus.respLayer0.utilization             0.0                       # Layer utilization (%)
system.voltage_domain.voltage                       1                       # Voltage in Volts
system.clk_domain.clock                          1000                       # Clock period in ticks
system.l2.pwrStateResidencyTicks::UNDEFINED  67352664000                       # Cumulative time (in ticks) in various power states
system.l2.demand_hits::.cpu.inst                 6209                       # number of demand (read+write) hits
system.l2.demand_hits::.cpu.data               526733                       # number of demand (read+write) hits
system.l2.demand_hits::total                   532942                       # number of demand (read+write) hits
system.l2.overall_hits::.cpu.inst                6209                       # number of overall hits
system.l2.overall_hits::.cpu.data              526733                       # number of overall hits
system.l2.overall_hits::total                  532942                       # number of overall hits
system.l2.demand_misses::.cpu.inst                506                       # number of demand (read+write) misses
system.l2.demand_misses::.cpu.data               1116                       # number of demand (read+write) misses
system.l2.demand_misses::total                   1622                       # number of demand (read+write) misses
system.l2.overall_misses::.cpu.inst               506                       # number of overall misses
system.l2.overall_misses::.cpu.data              1116                       # number of overall misses
system.l2.overall_misses::total                  1622                       # number of overall misses
system.l2.demand_miss_latency::.cpu.inst     47741000                       # number of demand (read+write) miss cycles
system.l2.demand_miss_latency::.cpu.data    110940500                       # number of demand (read+write) miss cycles
system.l2.demand_miss_latency::total        158681500                       # number of demand (read+write) miss cycles
system.l2.overall_miss_latency::.cpu.inst     47741000                       # number of overall miss cycles
system.l2.overall_miss_latency::.cpu.data    110940500                       # number of overall miss cycles
system.l2.overall_miss_latency::total       158681500                       # number of overall miss cycles
system.l2.demand_accesses::.cpu.inst             6715                       # number of demand (read+write) accesses
system.l2.demand_accesses::.cpu.data           527849                       # number of demand (read+write) accesses
system.l2.demand_accesses::total               534564                       # number of demand (read+write) accesses
system.l2.overall_accesses::.cpu.inst            6715                       # number of overall (read+write) accesses
system.l2.overall_accesses::.cpu.data          527849                       # number of overall (read+write) accesses
system.l2.overall_accesses::total              534564                       # number of overall (read+write) accesses
system.l2.demand_miss_rate::.cpu.inst        0.075354                       # miss rate for demand accesses
system.l2.demand_miss_rate::.cpu.data        0.002114                       # miss rate for demand accesses
system.l2.demand_miss_rate::total            0.003034                       # miss rate for demand accesses
system.l2.overall_miss_rate::.cpu.inst       0.075354                       # miss rate for overall accesses
system.l2.overall_miss_rate::.cpu.data       0.002114                       # miss rate for overall accesses
system.l2.overall_miss_rate::total           0.003034                       # miss rate for overall accesses
system.l2.demand_avg_miss_latency::.cpu.inst 94349.802372                       # average overall miss latency
system.l2.demand_avg_miss_latency::.cpu.data 99409.050179                       # average overall miss latency
system.l2.demand_avg_miss_latency::total 97830.764488                       # average overall miss latency
system.l2.overall_avg_miss_latency::.cpu.inst 94349.802372                       # average overall miss latency
system.l2.overall_avg_miss_latency::.cpu.data 99409.050179                       # average overall miss latency
system.l2.overall_avg_miss_latency::total 97830.764488                       # average overall miss latency
system.l2.blocked_cycles::no_mshrs                  0                       # number of cycles access was blocked
system.l2.blocked_cycles::no_targets                0                       # number of cycles access was blocked
system.l2.blocked::no_mshrs                         0                       # number of cycles access was blocked
system.l2.blocked::no_targets                       0                       # number of cycles access was blocked
system.l2.avg_blocked_cycles::no_mshrs            nan                       # average number of cycles each access was blocked
system.l2.avg_blocked_cycles::no_targets          nan                       # average number of cycles each access was blocked
system.l2.writebacks::.writebacks                   1                       # number of writebacks
system.l2.writebacks::total                         1                       # number of writebacks
system.l2.demand_mshr_hits::.cpu.inst               1                       # number of demand (read+write) MSHR hits
system.l2.demand_mshr_hits::.cpu.data               7                       # number of demand (read+write) MSHR hits
system.l2.demand_mshr_hits::total                   8                       # number of demand (read+write) MSHR hits
system.l2.overall_mshr_hits::.cpu.inst              1                       # number of overall MSHR hits
system.l2.overall_mshr_hits::.cpu.data              7                       # number of overall MSHR hits
system.l2.overall_mshr_hits::total                  8                       # number of overall MSHR hits
system.l2.demand_mshr_misses::.cpu.inst           505                       # number of demand (read+write) MSHR misses
system.l2.demand_mshr_misses::.cpu.data          1109                       # number of demand (read+write) MSHR misses
system.l2.demand_mshr_misses::total              1614                       # number of demand (read+write) MSHR misses
system.l2.overall_mshr_misses::.cpu.inst          505                       # number of overall MSHR misses
system.l2.overall_mshr_misses::.cpu.data         1109                       # number of overall MSHR misses
system.l2.overall_mshr_misses::total             1614                       # number of overall MSHR misses
system.l2.demand_mshr_miss_latency::.cpu.inst     42677000                       # number of demand (read+write) MSHR miss cycles
system.l2.demand_mshr_miss_latency::.cpu.data     99268000                       # number of demand (read+write) MSHR miss cycles
system.l2.demand_mshr_miss_latency::total    141945000                       # number of demand (read+write) MSHR miss cycles
system.l2.overall_mshr_miss_latency::.cpu.inst     42677000                       # number of overall MSHR miss cycles
system.l2.overall_mshr_miss_latency::.cpu.data     99268000                       # number of overall MSHR miss cycles
system.l2.overall_mshr_miss_latency::total    141945000                       # number of overall MSHR miss cycles
system.l2.demand_mshr_miss_rate::.cpu.inst     0.075205                       # mshr miss rate for demand accesses
system.l2.demand_mshr_miss_rate::.cpu.data     0.002101                       # mshr miss rate for demand accesses
system.l2.demand_mshr_miss_rate::total       0.003019                       # mshr miss rate for demand accesses
system.l2.overall_mshr_miss_rate::.cpu.inst     0.075205                       # mshr miss rate for overall accesses
system.l2.overall_mshr_miss_rate::.cpu.data     0.002101                       # mshr miss rate for overall accesses
system.l2.overall_mshr_miss_rate::total      0.003019                       # mshr miss rate for overall accesses
system.l2.demand_avg_mshr_miss_latency::.cpu.inst 84508.910891                       # average overall mshr miss latency
system.l2.demand_avg_mshr_miss_latency::.cpu.data 89511.271416                       # average overall mshr miss latency
system.l2.demand_avg_mshr_miss_latency::total 87946.096654                       # average overall mshr miss latency
system.l2.overall_avg_mshr_miss_latency::.cpu.inst 84508.910891                       # average overall mshr miss latency
system.l2.overall_avg_mshr_miss_latency::.cpu.data 89511.271416                       # average overall mshr miss latency
system.l2.overall_avg_mshr_miss_latency::total 87946.096654                       # average overall mshr miss latency
system.l2.replacements                             46                       # number of replacements
system.l2.WritebackDirty_hits::.writebacks       522554                       # number of WritebackDirty hits
system.l2.WritebackDirty_hits::total           522554                       # number of WritebackDirty hits
system.l2.WritebackDirty_accesses::.writebacks       522554                       # number of WritebackDirty accesses(hits+misses)
system.l2.WritebackDirty_accesses::total       522554                       # number of WritebackDirty accesses(hits+misses)
system.l2.WritebackClean_hits::.writebacks         6513                       # number of WritebackClean hits
system.l2.WritebackClean_hits::total             6513                       # number of WritebackClean hits
system.l2.WritebackClean_accesses::.writebacks         6513                       # number of WritebackClean accesses(hits+misses)
system.l2.WritebackClean_accesses::total         6513                       # number of WritebackClean accesses(hits+misses)
system.l2.ReadExReq_hits::.cpu.data            109192                       # number of ReadExReq hits
system.l2.ReadExReq_hits::total                109192                       # number of ReadExReq hits
system.l2.ReadExReq_misses::.cpu.data             935                       # number of ReadExReq misses
system.l2.ReadExReq_misses::total                 935                       # number of ReadExReq misses
system.l2.ReadExReq_miss_latency::.cpu.data     92342000                       # number of ReadExReq miss cycles
system.l2.ReadExReq_miss_latency::total      92342000                       # number of ReadExReq miss cycles
system.l2.ReadExReq_accesses::.cpu.data        110127                       # number of ReadExReq accesses(hits+misses)
system.l2.ReadExReq_accesses::total            110127                       # number of ReadExReq accesses(hits+misses)
system.l2.ReadExReq_miss_rate::.cpu.data     0.008490                       # miss rate for ReadExReq accesses
system.l2.ReadExReq_miss_rate::total         0.008490                       # miss rate for ReadExReq accesses
system.l2.ReadExReq_avg_miss_latency::.cpu.data 98761.497326                       # average ReadExReq miss latency
system.l2.ReadExReq_avg_miss_latency::total 98761.497326                       # average ReadExReq miss latency
system.l2.ReadExReq_mshr_misses::.cpu.data          935                       # number of ReadExReq MSHR misses
system.l2.ReadExReq_mshr_misses::total            935                       # number of ReadExReq MSHR misses
system.l2.ReadExReq_mshr_miss_latency::.cpu.data     82992000                       # number of ReadExReq MSHR miss cycles
system.l2.ReadExReq_mshr_miss_latency::total     82992000                       # number of ReadExReq MSHR miss cycles
system.l2.ReadExReq_mshr_miss_rate::.cpu.data     0.008490                       # mshr miss rate for ReadExReq accesses
system.l2.ReadExReq_mshr_miss_rate::total     0.008490                       # mshr miss rate for ReadExReq accesses
system.l2.ReadExReq_avg_mshr_miss_latency::.cpu.data 88761.497326                       # average ReadExReq mshr miss latency
system.l2.ReadExReq_avg_mshr_miss_latency::total 88761.497326                       # average ReadExReq mshr miss latency
system.l2.ReadCleanReq_hits::.cpu.inst           6209                       # number of ReadCleanReq hits
system.l2.ReadCleanReq_hits::total               6209                       # number of ReadCleanReq hits
system.l2.ReadCleanReq_misses::.cpu.inst          506                       # number of ReadCleanReq misses
system.l2.ReadCleanReq_misses::total              506                       # number of ReadCleanReq misses
system.l2.ReadCleanReq_miss_latency::.cpu.inst     47741000                       # number of ReadCleanReq miss cycles
system.l2.ReadCleanReq_miss_latency::total     47741000                       # number of ReadCleanReq miss cycles
system.l2.ReadCleanReq_accesses::.cpu.inst         6715                       # number of ReadCleanReq accesses(hits+misses)
system.l2.ReadCleanReq_accesses::total           6715                       # number of ReadCleanReq accesses(hits+misses)
system.l2.ReadCleanReq_miss_rate::.cpu.inst     0.075354                       # miss rate for ReadCleanReq accesses
system.l2.ReadCleanReq_miss_rate::total      0.075354                       # miss rate for ReadCleanReq accesses
system.l2.ReadCleanReq_avg_miss_latency::.cpu.inst 94349.802372                       # average ReadCleanReq miss latency
system.l2.ReadCleanReq_avg_miss_latency::total 94349.802372                       # average ReadCleanReq miss latency
system.l2.ReadCleanReq_mshr_hits::.cpu.inst            1                       # number of ReadCleanReq MSHR hits
system.l2.ReadCleanReq_mshr_hits::total             1                       # number of ReadCleanReq MSHR hits
system.l2.ReadCleanReq_mshr_misses::.cpu.inst          505                       # number of ReadCleanReq MSHR misses
system.l2.ReadCleanReq_mshr_misses::total          505                       # number of ReadCleanReq MSHR misses
system.l2.ReadCleanReq_mshr_miss_latency::.cpu.inst     42677000                       # number of ReadCleanReq MSHR miss cycles
system.l2.ReadCleanReq_mshr_miss_latency::total     42677000                       # number of ReadCleanReq MSHR miss cycles
system.l2.ReadCleanReq_mshr_miss_rate::.cpu.inst     0.075205                       # mshr miss rate for ReadCleanReq accesses
system.l2.ReadCleanReq_mshr_miss_rate::total     0.075205                       # mshr miss rate for ReadCleanReq accesses
system.l2.ReadCleanReq_avg_mshr_miss_latency::.cpu.inst 84508.910891                       # average ReadCleanReq mshr miss latency
system.l2.ReadCleanReq_avg_mshr_miss_latency::total 84508.910891                       # average ReadCleanReq mshr miss latency
system.l2.ReadSharedReq_hits::.cpu.data        417541                       # number of ReadSharedReq hits
system.l2.ReadSharedReq_hits::total            417541                       # number of ReadSharedReq hits
system.l2.ReadSharedReq_misses::.cpu.data          181                       # number of ReadSharedReq misses
system.l2.ReadSharedReq_misses::total             181                       # number of ReadSharedReq misses
system.l2.ReadSharedReq_miss_latency::.cpu.data     18598500                       # number of ReadSharedReq miss cycles
system.l2.ReadSharedReq_miss_latency::total     18598500                       # number of ReadSharedReq miss cycles
system.l2.ReadSharedReq_accesses::.cpu.data       417722                       # number of ReadSharedReq accesses(hits+misses)
system.l2.ReadSharedReq_accesses::total        417722                       # number of ReadSharedReq accesses(hits+misses)
system.l2.ReadSharedReq_miss_rate::.cpu.data     0.000433                       # miss rate for ReadSharedReq accesses
system.l2.ReadSharedReq_miss_rate::total     0.000433                       # miss rate for ReadSharedReq accesses
system.l2.ReadSharedReq_avg_miss_latency::.cpu.data 102754.143646                       # average ReadSharedReq miss latency
system.l2.ReadSharedReq_avg_miss_latency::total 102754.143646                       # average ReadSharedReq miss latency
system.l2.ReadSharedReq_mshr_hits::.cpu.data            7                       # number of ReadSharedReq MSHR hits
system.l2.ReadSharedReq_mshr_hits::total            7                       # number of ReadSharedReq MSHR hits
system.l2.ReadSharedReq_mshr_misses::.cpu.data          174                       # number of ReadSharedReq MSHR misses
system.l2.ReadSharedReq_mshr_misses::total          174                       # number of ReadSharedReq MSHR misses
system.l2.ReadSharedReq_mshr_miss_latency::.cpu.data     16276000                       # number of ReadSharedReq MSHR miss cycles
system.l2.ReadSharedReq_mshr_miss_latency::total     16276000                       # number of ReadSharedReq MSHR miss cycles
system.l2.ReadSharedReq_mshr_miss_rate::.cpu.data     0.000417                       # mshr miss rate for ReadSharedReq accesses
system.l2.ReadSharedReq_mshr_miss_rate::total     0.000417                       # mshr miss rate for ReadSharedReq accesses
system.l2.ReadSharedReq_avg_mshr_miss_latency::.cpu.data 93540.229885                       # average ReadSharedReq mshr miss latency
system.l2.ReadSharedReq_avg_mshr_miss_latency::total 93540.229885                       # average ReadSharedReq mshr miss latency
system.l2.tags.pwrStateResidencyTicks::UNDEFINED  67352664000                       # Cumulative time (in ticks) in various power states
system.l2.tags.tagsinuse                  1518.764199                       # Cycle average of tags in use
system.l2.tags.total_refs                     1066538                       # Total number of references to valid blocks.
system.l2.tags.sampled_refs                      1614                       # Sample count of references to valid blocks.
system.l2.tags.avg_refs                    660.804213                       # Average number of references to valid blocks.
system.l2.tags.warmup_cycle                     92000                       # Cycle when the warmup percentage was hit.
system.l2.tags.occ_blocks::.cpu.inst       469.297216                       # Average occupied blocks per requestor
system.l2.tags.occ_blocks::.cpu.data      1049.466983                       # Average occupied blocks per requestor
system.l2.tags.occ_percent::.cpu.inst        0.229149                       # Average percentage of cache occupancy
system.l2.tags.occ_percent::.cpu.data        0.512435                       # Average percentage of cache occupancy
system.l2.tags.occ_percent::total            0.741584                       # Average percentage of cache occupancy
system.l2.tags.occ_task_id_blocks::1024          1568                       # Occupied blocks per task id
system.l2.tags.age_task_id_blocks_1024::4         1568                       # Occupied blocks per task id
system.l2.tags.occ_task_id_percent::1024     0.765625                       # Percentage of cache occupancy per task id
system.l2.tags.tag_accesses                   4267798                       # Number of tag accesses
system.l2.tags.data_accesses                  4267798                       # Number of data accesses
system.cpu_voltage_domain.voltage                   1                       # Voltage in Volts
system.mem_ctrls.pwrStateResidencyTicks::UNDEFINED  67352664000                       # Cumulative time (in ticks) in various power states
system.mem_ctrls.bytes_read::.cpu.inst         129280                       # Number of bytes read from this memory
system.mem_ctrls.bytes_read::.cpu.data         283904                       # Number of bytes read from this memory
system.mem_ctrls.bytes_read::total             413184                       # Number of bytes read from this memory
system.mem_ctrls.bytes_inst_read::.cpu.inst       129280                       # Number of instructions bytes read from this memory
system.mem_ctrls.bytes_inst_read::total        129280                       # Number of instructions bytes read from this memory
system.mem_ctrls.bytes_written::.writebacks          256                       # Number of bytes written to this memory
system.mem_ctrls.bytes_written::total             256                       # Number of bytes written to this memory
system.mem_ctrls.num_reads::.cpu.inst             505                       # Number of read requests responded to by this memory
system.mem_ctrls.num_reads::.cpu.data            1109                       # Number of read requests responded to by this memory
system.mem_ctrls.num_reads::total                1614                       # Number of read requests responded to by this memory
system.mem_ctrls.num_writes::.writebacks            1                       # Number of write requests responded to by this memory
system.mem_ctrls.num_writes::total                  1                       # Number of write requests responded to by this memory
system.mem_ctrls.bw_read::.cpu.inst           1919449                       # Total read bandwidth from this memory (bytes/s)
system.mem_ctrls.bw_read::.cpu.data           4215186                       # Total read bandwidth from this memory (bytes/s)
system.mem_ctrls.bw_read::total               6134635                       # Total read bandwidth from this memory (bytes/s)
system.mem_ctrls.bw_inst_read::.cpu.inst      1919449                       # Instruction read bandwidth from this memory (bytes/s)
system.mem_ctrls.bw_inst_read::total          1919449                       # Instruction read bandwidth from this memory (bytes/s)
system.mem_ctrls.bw_write::.writebacks           3801                       # Write bandwidth from this memory (bytes/s)
system.mem_ctrls.bw_write::total                 3801                       # Write bandwidth from this memory (bytes/s)
system.mem_ctrls.bw_total::.writebacks           3801                       # Total bandwidth to/from this memory (bytes/s)
system.mem_ctrls.bw_total::.cpu.inst          1919449                       # Total bandwidth to/from this memory (bytes/s)
system.mem_ctrls.bw_total::.cpu.data          4215186                       # Total bandwidth to/from this memory (bytes/s)
system.mem_ctrls.bw_total::total              6138436                       # Total bandwidth to/from this memory (bytes/s)
system.mem_ctrls.avgPriority_.writebacks::samples         4.00                       # Average QoS priority value for accepted requests
system.mem_ctrls.avgPriority_.cpu.inst::samples      2020.00                       # Average QoS priority value for accepted requests
system.mem_ctrls.avgPriority_.cpu.data::samples      4436.00                       # Average QoS priority value for accepted requests
system.mem_ctrls.priorityMinLatency      0.000000018750                       # per QoS priority minimum request to response latency (s)
system.mem_ctrls.priorityMaxLatency      0.000000595750                       # per QoS priority maximum request to response latency (s)
system.mem_ctrls.numReadWriteTurnArounds            0                       # Number of turnarounds from READ to WRITE
system.mem_ctrls.numWriteReadTurnArounds            0                       # Number of turnarounds from WRITE to READ
system.mem_ctrls.numStayReadState               25341                       # Number of times bus staying in READ state
system.mem_ctrls.numStayWriteState                  0                       # Number of times bus staying in WRITE state
system.mem_ctrls.readReqs                        1614                       # Number of read requests accepted
system.mem_ctrls.writeReqs                          1                       # Number of write requests accepted
system.mem_ctrls.readBursts                      6456                       # Number of DRAM read bursts, including those serviced by the write queue
system.mem_ctrls.writeBursts                        4                       # Number of DRAM write bursts, including those merged in the write queue
system.mem_ctrls.servicedByWrQ                      0                       # Number of DRAM read bursts serviced by the write queue
system.mem_ctrls.mergedWrBursts                     0                       # Number of DRAM write bursts merged with an existing one
system.mem_ctrls.neitherReadNorWriteReqs            0                       # Number of requests that are neither read nor write
system.mem_ctrls.perBankRdBursts::0               340                       # Per bank write bursts
system.mem_ctrls.perBankRdBursts::1               356                       # Per bank write bursts
system.mem_ctrls.perBankRdBursts::2               240                       # Per bank write bursts
system.mem_ctrls.perBankRdBursts::3               460                       # Per bank write bursts
system.mem_ctrls.perBankRdBursts::4               484                       # Per bank write bursts
system.mem_ctrls.perBankRdBursts::5               404                       # Per bank write bursts
system.mem_ctrls.perBankRdBursts::6               424                       # Per bank write bursts
system.mem_ctrls.perBankRdBursts::7               456                       # Per bank write bursts
system.mem_ctrls.perBankRdBursts::8               408                       # Per bank write bursts
system.mem_ctrls.perBankRdBursts::9               448                       # Per bank write bursts
system.mem_ctrls.perBankRdBursts::10              488                       # Per bank write bursts
system.mem_ctrls.perBankRdBursts::11              348                       # Per bank write bursts
system.mem_ctrls.perBankRdBursts::12              328                       # Per bank write bursts
system.mem_ctrls.perBankRdBursts::13              404                       # Per bank write bursts
system.mem_ctrls.perBankRdBursts::14              504                       # Per bank write bursts
system.mem_ctrls.perBankRdBursts::15              364                       # Per bank write bursts
system.mem_ctrls.perBankWrBursts::0                 0                       # Per bank write bursts
system.mem_ctrls.perBankWrBursts::1                 0                       # Per bank write bursts
system.mem_ctrls.perBankWrBursts::2                 0                       # Per bank write bursts
system.mem_ctrls.perBankWrBursts::3                 0                       # Per bank write bursts
system.mem_ctrls.perBankWrBursts::4                 0                       # Per bank write bursts
system.mem_ctrls.perBankWrBursts::5                 0                       # Per bank write bursts
system.mem_ctrls.perBankWrBursts::6                 0                       # Per bank write bursts
system.mem_ctrls.perBankWrBursts::7                 0                       # Per bank write bursts
system.mem_ctrls.perBankWrBursts::8                 0                       # Per bank write bursts
system.mem_ctrls.perBankWrBursts::9                 0                       # Per bank write bursts
system.mem_ctrls.perBankWrBursts::10                0                       # Per bank write bursts
system.mem_ctrls.perBankWrBursts::11                0                       # Per bank write bursts
system.mem_ctrls.perBankWrBursts::12                0                       # Per bank write bursts
system.mem_ctrls.perBankWrBursts::13                0                       # Per bank write bursts
system.mem_ctrls.perBankWrBursts::14                0                       # Per bank write bursts
system.mem_ctrls.perBankWrBursts::15                0                       # Per bank write bursts
system.mem_ctrls.avgRdQLen                       4.01                       # Average read queue length when enqueuing
system.mem_ctrls.avgWrQLen                       3.82                       # Average write queue length when enqueuing
system.mem_ctrls.totQLat                    132468000                       # Total ticks spent queuing
system.mem_ctrls.totBusLat                   32280000                       # Total ticks spent in databus transfers
system.mem_ctrls.totMemAccLat               253518000                       # Total ticks spent from burst creation until serviced by the DRAM
system.mem_ctrls.avgQLat                     20518.59                       # Average queueing delay per DRAM burst
system.mem_ctrls.avgBusLat                    5000.00                       # Average bus latency per DRAM burst
system.mem_ctrls.avgMemAccLat                39268.59                       # Average memory access latency per DRAM burst
system.mem_ctrls.numRdRetry                         0                       # Number of times read queue was full causing retry
system.mem_ctrls.numWrRetry                         0                       # Number of times write queue was full causing retry
system.mem_ctrls.readRowHits                     5569                       # Number of row buffer hits during reads
system.mem_ctrls.writeRowHits                       0                       # Number of row buffer hits during writes
system.mem_ctrls.readRowHitRate                 86.26                       # Row buffer hit rate for reads
system.mem_ctrls.writeRowHitRate                 0.00                       # Row buffer hit rate for writes
system.mem_ctrls.readPktSize::0                     0                       # Read request sizes (log2)
system.mem_ctrls.readPktSize::1                     0                       # Read request sizes (log2)
system.mem_ctrls.readPktSize::2                     0                       # Read request sizes (log2)
system.mem_ctrls.readPktSize::3                     0                       # Read request sizes (log2)
system.mem_ctrls.readPktSize::4                     0                       # Read request sizes (log2)
system.mem_ctrls.readPktSize::5                     0                       # Read request sizes (log2)
system.mem_ctrls.readPktSize::6                  6456                       # Read request sizes (log2)
system.mem_ctrls.writePktSize::0                    0                       # Write request sizes (log2)
system.mem_ctrls.writePktSize::1                    0                       # Write request sizes (log2)
system.mem_ctrls.writePktSize::2                    0                       # Write request sizes (log2)
system.mem_ctrls.writePktSize::3                    0                       # Write request sizes (log2)
system.mem_ctrls.writePktSize::4                    0                       # Write request sizes (log2)
system.mem_ctrls.writePktSize::5                    0                       # Write request sizes (log2)
system.mem_ctrls.writePktSize::6                    4                       # Write request sizes (log2)
system.mem_ctrls.rdQLenPdf::0                    1541                       # What read queue length does an incoming req see
system.mem_ctrls.rdQLenPdf::1                    1542                       # What read queue length does an incoming req see
system.mem_ctrls.rdQLenPdf::2                    1544                       # What read queue length does an incoming req see
system.mem_ctrls.rdQLenPdf::3                    1549                       # What read queue length does an incoming req see
system.mem_ctrls.rdQLenPdf::4                      71                       # What read queue length does an incoming req see
system.mem_ctrls.rdQLenPdf::5                      70                       # What read queue length does an incoming req see
system.mem_ctrls.rdQLenPdf::6                      68                       # What read queue length does an incoming req see
system.mem_ctrls.rdQLenPdf::7                      64                       # What read queue length does an incoming req see
system.mem_ctrls.rdQLenPdf::8                       2                       # What read queue length does an incoming req see
system.mem_ctrls.rdQLenPdf::9                       2                       # What read queue length does an incoming req see
system.mem_ctrls.rdQLenPdf::10                      2                       # What read queue length does an incoming req see
system.mem_ctrls.rdQLenPdf::11                      1                       # What read queue length does an incoming req see
system.mem_ctrls.rdQLenPdf::12                      0                       # What read queue length does an incoming req see
system.mem_ctrls.rdQLenPdf::13                      0                       # What read queue length does an incoming req see
system.mem_ctrls.rdQLenPdf::14                      0                       # What read queue length does an incoming req see
system.mem_ctrls.rdQLenPdf::15                      0                       # What read queue length does an incoming req see
system.mem_ctrls.rdQLenPdf::16                      0                       # What read queue length does an incoming req see
system.mem_ctrls.rdQLenPdf::17                      0                       # What read queue length does an incoming req see
system.mem_ctrls.rdQLenPdf::18                      0                       # What read queue length does an incoming req see
system.mem_ctrls.rdQLenPdf::19                      0                       # What read queue length does an incoming req see
system.mem_ctrls.rdQLenPdf::20                      0                       # What read queue length does an incoming req see
system.mem_ctrls.rdQLenPdf::21                      0                       # What read queue length does an incoming req see
system.mem_ctrls.rdQLenPdf::22                      0                       # What read queue length does an incoming req see
system.mem_ctrls.rdQLenPdf::23                      0                       # What read queue length does an incoming req see
system.mem_ctrls.rdQLenPdf::24                      0                       # What read queue length does an incoming req see
system.mem_ctrls.rdQLenPdf::25                      0                       # What read queue length does an incoming req see
system.mem_ctrls.rdQLenPdf::26                      0                       # What read queue length does an incoming req see
system.mem_ctrls.rdQLenPdf::27                      0                       # What read queue length does an incoming req see
system.mem_ctrls.rdQLenPdf::28                      0                       # What read queue length does an incoming req see
system.mem_ctrls.rdQLenPdf::29                      0                       # What read queue length does an incoming req see
system.mem_ctrls.rdQLenPdf::30                      0                       # What read queue length does an incoming req see
system.mem_ctrls.rdQLenPdf::31                      0                       # What read queue length does an incoming req see
system.mem_ctrls.wrQLenPdf::0                       1                       # What write queue length does an incoming req see
system.mem_ctrls.wrQLenPdf::1                       1                       # What write queue length does an incoming req see
system.mem_ctrls.wrQLenPdf::2                       1                       # What write queue length does an incoming req see
system.mem_ctrls.wrQLenPdf::3                       1                       # What write queue length does an incoming req see
system.mem_ctrls.wrQLenPdf::4                       0                       # What write queue length does an incoming req see
system.mem_ctrls.wrQLenPdf::5                       0                       # What write queue length does an incoming req see
system.mem_ctrls.wrQLenPdf::6                       0                       # What write queue length does an incoming req see
system.mem_ctrls.wrQLenPdf::7                       0                       # What write queue length does an incoming req see
system.mem_ctrls.wrQLenPdf::8                       0                       # What write queue length does an incoming req see
system.mem_ctrls.wrQLenPdf::9                       0                       # What write queue length does an incoming req see
system.mem_ctrls.wrQLenPdf::10                      0                       # What write queue length does an incoming req see
system.mem_ctrls.wrQLenPdf::11                      0                       # What write queue length does an incoming req see
system.mem_ctrls.wrQLenPdf::12                      0                       # What write queue length does an incoming req see
system.mem_ctrls.wrQLenPdf::13                      0                       # What write queue length does an incoming req see
system.mem_ctrls.wrQLenPdf::14                      0                       # What write queue length does an incoming req see
system.mem_ctrls.wrQLenPdf::15                      0                       # What write queue length does an incoming req see
system.mem_ctrls.wrQLenPdf::16                      0                       # What write queue length does an incoming req see
system.mem_ctrls.wrQLenPdf::17                      0                       # What write queue length does an incoming req see
system.mem_ctrls.wrQLenPdf::18                      0                       # What write queue length does an incoming req see
system.mem_ctrls.wrQLenPdf::19                      0                       # What write queue length does an incoming req see
system.mem_ctrls.wrQLenPdf::20                      0                       # What write queue length does an incoming req see
system.mem_ctrls.wrQLenPdf::21                      0                       # What write queue length does an incoming req see
system.mem_ctrls.wrQLenPdf::22                      0                       # What write queue length does an incoming req see
system.mem_ctrls.wrQLenPdf::23                      0                       # What write queue length does an incoming req see
system.mem_ctrls.wrQLenPdf::24                      0                       # What write queue length does an incoming req see
system.mem_ctrls.wrQLenPdf::25                      0                       # What write queue length does an incoming req see
system.mem_ctrls.wrQLenPdf::26                      0                       # What write queue length does an incoming req see
system.mem_ctrls.wrQLenPdf::27                      0                       # What write queue length does an incoming req see
system.mem_ctrls.wrQLenPdf::28                      0                       # What write queue length does an incoming req see
system.mem_ctrls.wrQLenPdf::29                      0                       # What write queue length does an incoming req see
system.mem_ctrls.wrQLenPdf::30                      0                       # What write queue length does an incoming req see
system.mem_ctrls.wrQLenPdf::31                      0                       # What write queue length does an incoming req see
system.mem_ctrls.wrQLenPdf::32                      0                       # What write queue length does an incoming req see
system.mem_ctrls.wrQLenPdf::33                      0                       # What write queue length does an incoming req see
system.mem_ctrls.wrQLenPdf::34                      0                       # What write queue length does an incoming req see
system.mem_ctrls.wrQLenPdf::35                      0                       # What write queue length does an incoming req see
system.mem_ctrls.wrQLenPdf::36                      0                       # What write queue length does an incoming req see
system.mem_ctrls.wrQLenPdf::37                      0                       # What write queue length does an incoming req see
system.mem_ctrls.wrQLenPdf::38                      0                       # What write queue length does an incoming req see
system.mem_ctrls.wrQLenPdf::39                      0                       # What write queue length does an incoming req see
system.mem_ctrls.wrQLenPdf::40                      0                       # What write queue length does an incoming req see
system.mem_ctrls.wrQLenPdf::41                      0                       # What write queue length does an incoming req see
system.mem_ctrls.wrQLenPdf::42                      0                       # What write queue length does an incoming req see
system.mem_ctrls.wrQLenPdf::43                      0                       # What write queue length does an incoming req see
system.mem_ctrls.wrQLenPdf::44                      0                       # What write queue length does an incoming req see
system.mem_ctrls.wrQLenPdf::45                      0                       # What write queue length does an incoming req see
system.mem_ctrls.wrQLenPdf::46                      0                       # What write queue length does an incoming req see
system.mem_ctrls.wrQLenPdf::47                      0                       # What write queue length does an incoming req see
system.mem_ctrls.wrQLenPdf::48                      0                       # What write queue length does an incoming req see
system.mem_ctrls.wrQLenPdf::49                      0                       # What write queue length does an incoming req see
system.mem_ctrls.wrQLenPdf::50                      0                       # What write queue length does an incoming req see
system.mem_ctrls.wrQLenPdf::51                      0                       # What write queue length does an incoming req see
system.mem_ctrls.wrQLenPdf::52                      0                       # What write queue length does an incoming req see
system.mem_ctrls.wrQLenPdf::53                      0                       # What write queue length does an incoming req see
system.mem_ctrls.wrQLenPdf::54                      0                       # What write queue length does an incoming req see
system.mem_ctrls.wrQLenPdf::55                      0                       # What write queue length does an incoming req see
system.mem_ctrls.wrQLenPdf::56                      0                       # What write queue length does an incoming req see
system.mem_ctrls.wrQLenPdf::57                      0                       # What write queue length does an incoming req see
system.mem_ctrls.wrQLenPdf::58                      0                       # What write queue length does an incoming req see
system.mem_ctrls.wrQLenPdf::59                      0                       # What write queue length does an incoming req see
system.mem_ctrls.wrQLenPdf::60                      0                       # What write queue length does an incoming req see
system.mem_ctrls.wrQLenPdf::61                      0                       # What write queue length does an incoming req see
system.mem_ctrls.wrQLenPdf::62                      0                       # What write queue length does an incoming req see
system.mem_ctrls.wrQLenPdf::63                      0                       # What write queue length does an incoming req see
system.mem_ctrls.bytesPerActivate::samples          887                       # Bytes accessed per row activation
system.mem_ctrls.bytesPerActivate::mean    465.821871                       # Bytes accessed per row activation
system.mem_ctrls.bytesPerActivate::gmean   384.921166                       # Bytes accessed per row activation
system.mem_ctrls.bytesPerActivate::stdev   314.022500                       # Bytes accessed per row activation
system.mem_ctrls.bytesPerActivate::256-383          580     65.39%     65.39% # Bytes accessed per row activation
system.mem_ctrls.bytesPerActivate::512-639           68      7.67%     73.06% # Bytes accessed per row activation
system.mem_ctrls.bytesPerActivate::768-895           58      6.54%     79.59% # Bytes accessed per row activation
system.mem_ctrls.bytesPerActivate::1024-1151          181     20.41%    100.00% # Bytes accessed per row activation
system.mem_ctrls.bytesPerActivate::total          887                       # Bytes accessed per row activation
system.mem_ctrls.bytesReadDRAM                 413184                       # Total number of bytes read from DRAM
system.mem_ctrls.bytesReadWrQ                       0                       # Total number of bytes read from write queue
system.mem_ctrls.bytesWritten                       0                       # Total number of bytes written to DRAM
system.mem_ctrls.bytesReadSys                  413184                       # Total read bytes from the system interface side
system.mem_ctrls.bytesWrittenSys                  256                       # Total written bytes from the system interface side
system.mem_ctrls.avgRdBW                         6.13                       # Average DRAM read bandwidth in MiByte/s
system.mem_ctrls.avgWrBW                         0.00                       # Average achieved write bandwidth in MiByte/s
system.mem_ctrls.avgRdBWSys                      6.13                       # Average system read bandwidth in MiByte/s
system.mem_ctrls.avgWrBWSys                      0.00                       # Average system write bandwidth in MiByte/s
system.mem_ctrls.peakBW                      12800.00                       # Theoretical peak bandwidth in MiByte/s
system.mem_ctrls.busUtil                         0.05                       # Data bus utilization in percentage
system.mem_ctrls.busUtilRead                     0.05                       # Data bus utilization in percentage for reads
system.mem_ctrls.busUtilWrite                    0.00                       # Data bus utilization in percentage for writes
system.mem_ctrls.totGap                   45681463500                       # Total gap between requests
system.mem_ctrls.avgGap                   28285735.91                       # Average gap between requests
system.mem_ctrls.masterReadBytes::.cpu.inst       129280                       # Per-master bytes read from memory
system.mem_ctrls.masterReadBytes::.cpu.data       283904                       # Per-master bytes read from memory
system.mem_ctrls.masterReadRate::.cpu.inst 1919448.947112173541                       # Per-master bytes read from memory rate (Bytes/sec)
system.mem_ctrls.masterReadRate::.cpu.data 4215185.905638416298                       # Per-master bytes read from memory rate (Bytes/sec)
system.mem_ctrls.masterReadAccesses::.cpu.inst         2020                       # Per-master read serviced memory accesses
[...]
system.cpu.icache.ReadReq_avg_miss_latency::total 20207.148176                       # average ReadReq miss latency
system.cpu.icache.ReadReq_mshr_misses::.cpu.inst         6715                       # number of ReadReq MSHR misses
system.cpu.icache.ReadReq_mshr_misses::total         6715                       # number of ReadReq MSHR misses
system.cpu.icache.ReadReq_mshr_miss_latency::.cpu.inst    128976000                       # number of ReadReq MSHR miss cycles
system.cpu.icache.ReadReq_mshr_miss_latency::total    128976000                       # number of ReadReq MSHR miss cycles
system.cpu.icache.ReadReq_mshr_miss_rate::.cpu.inst     0.000470                       # mshr miss rate for ReadReq accesses
system.cpu.icache.ReadReq_mshr_miss_rate::total     0.000470                       # mshr miss rate for ReadReq accesses
system.cpu.icache.ReadReq_avg_mshr_miss_latency::.cpu.inst 19207.148176                       # average ReadReq mshr miss latency
system.cpu.icache.ReadReq_avg_mshr_miss_latency::total 19207.148176                       # average ReadReq mshr miss latency
system.cpu.icache.tags.pwrStateResidencyTicks::UNDEFINED  67352664000                       # Cumulative time (in ticks) in various power states
system.cpu.icache.tags.tagsinuse           127.969709                       # Cycle average of tags in use
system.cpu.icache.tags.total_refs            14296128                       # Total number of references to valid blocks.
system.cpu.icache.tags.sampled_refs              6715                       # Sample count of references to valid blocks.
system.cpu.icache.tags.avg_refs           2128.984066                       # Average number of references to valid blocks.
system.cpu.icache.tags.warmup_cycle            102500                       # Cycle when the warmup percentage was hit.
system.cpu.icache.tags.occ_blocks::.cpu.inst   127.969709                       # Average occupied blocks per requestor
system.cpu.icache.tags.occ_percent::.cpu.inst     0.999763                       # Average percentage of cache occupancy
system.cpu.icache.tags.occ_percent::total     0.999763                       # Average percentage of cache occupancy
system.cpu.icache.tags.occ_task_id_blocks::1024          128                       # Occupied blocks per task id
system.cpu.icache.tags.age_task_id_blocks_1024::2           13                       # Occupied blocks per task id
system.cpu.icache.tags.age_task_id_blocks_1024::3            7                       # Occupied blocks per task id
system.cpu.icache.tags.age_task_id_blocks_1024::4          108                       # Occupied blocks per task id
system.cpu.icache.tags.occ_task_id_percent::1024            1                       # Percentage of cache occupancy per task id
system.cpu.icache.tags.tag_accesses          28598971                       # Number of tag accesses
system.cpu.icache.tags.data_accesses         28598971                       # Number of data accesses
system.cpu.dtb.walker.pwrStateResidencyTicks::UNDEFINED  67352664000                       # Cumulative time (in ticks) in various power states
system.cpu.dtb.stage2_mmu.stage2_tlb.walker.pwrStateResidencyTicks::UNDEFINED  67352664000                       # Cumulative time (in ticks) in various power states
system.cpu.dcache.pwrStateResidencyTicks::UNDEFINED  67352664000                       # Cumulative time (in ticks) in various power states
system.cpu.dcache.demand_hits::.cpu.data     43284508                       # number of demand (read+write) hits
system.cpu.dcache.demand_hits::total         43284508                       # number of demand (read+write) hits
system.cpu.dcache.overall_hits::.cpu.data     43293119                       # number of overall hits
system.cpu.dcache.overall_hits::total        43293119                       # number of overall hits
system.cpu.dcache.demand_misses::.cpu.data       575796                       # number of demand (read+write) misses
system.cpu.dcache.demand_misses::total         575796                       # number of demand (read+write) misses
system.cpu.dcache.overall_misses::.cpu.data       575896                       # number of overall misses
system.cpu.dcache.overall_misses::total        575896                       # number of overall misses
system.cpu.dcache.demand_miss_latency::.cpu.data  10530926500                       # number of demand (read+write) miss cycles
system.cpu.dcache.demand_miss_latency::total  10530926500                       # number of demand (read+write) miss cycles
system.cpu.dcache.overall_miss_latency::.cpu.data  10530926500                       # number of overall miss cycles
system.cpu.dcache.overall_miss_latency::total  10530926500                       # number of overall miss cycles
system.cpu.dcache.demand_accesses::.cpu.data     43860304                       # number of demand (read+write) accesses
system.cpu.dcache.demand_accesses::total     43860304                       # number of demand (read+write) accesses
system.cpu.dcache.overall_accesses::.cpu.data     43869015                       # number of overall (read+write) accesses
system.cpu.dcache.overall_accesses::total     43869015                       # number of overall (read+write) accesses
system.cpu.dcache.demand_miss_rate::.cpu.data     0.013128                       # miss rate for demand accesses
system.cpu.dcache.demand_miss_rate::total     0.013128                       # miss rate for demand accesses
system.cpu.dcache.overall_miss_rate::.cpu.data     0.013128                       # miss rate for overall accesses
system.cpu.dcache.overall_miss_rate::total     0.013128                       # miss rate for overall accesses
system.cpu.dcache.demand_avg_miss_latency::.cpu.data 18289.335980                       # average overall miss latency
system.cpu.dcache.demand_avg_miss_latency::total 18289.335980                       # average overall miss latency
system.cpu.dcache.overall_avg_miss_latency::.cpu.data 18286.160175                       # average overall miss latency
system.cpu.dcache.overall_avg_miss_latency::total 18286.160175                       # average overall miss latency
system.cpu.dcache.blocked_cycles::no_mshrs            0                       # number of cycles access was blocked
system.cpu.dcache.blocked_cycles::no_targets            0                       # number of cycles access was blocked
system.cpu.dcache.blocked::no_mshrs                 0                       # number of cycles access was blocked
system.cpu.dcache.blocked::no_targets               0                       # number of cycles access was blocked
system.cpu.dcache.avg_blocked_cycles::no_mshrs          nan                       # average number of cycles each access was blocked
system.cpu.dcache.avg_blocked_cycles::no_targets          nan                       # average number of cycles each access was blocked
system.cpu.dcache.writebacks::.writebacks       522554                       # number of writebacks
system.cpu.dcache.writebacks::total            522554                       # number of writebacks
system.cpu.dcache.demand_mshr_hits::.cpu.data        47996                       # number of demand (read+write) MSHR hits
system.cpu.dcache.demand_mshr_hits::total        47996                       # number of demand (read+write) MSHR hits
system.cpu.dcache.overall_mshr_hits::.cpu.data        47996                       # number of overall MSHR hits
system.cpu.dcache.overall_mshr_hits::total        47996                       # number of overall MSHR hits
system.cpu.dcache.demand_mshr_misses::.cpu.data       527800                       # number of demand (read+write) MSHR misses
system.cpu.dcache.demand_mshr_misses::total       527800                       # number of demand (read+write) MSHR misses
system.cpu.dcache.overall_mshr_misses::.cpu.data       527849                       # number of overall MSHR misses
system.cpu.dcache.overall_mshr_misses::total       527849                       # number of overall MSHR misses
system.cpu.dcache.demand_mshr_miss_latency::.cpu.data   9174027000                       # number of demand (read+write) MSHR miss cycles
system.cpu.dcache.demand_mshr_miss_latency::total   9174027000                       # number of demand (read+write) MSHR miss cycles
system.cpu.dcache.overall_mshr_miss_latency::.cpu.data   9177346000                       # number of overall MSHR miss cycles
system.cpu.dcache.overall_mshr_miss_latency::total   9177346000                       # number of overall MSHR miss cycles
system.cpu.dcache.demand_mshr_miss_rate::.cpu.data     0.012034                       # mshr miss rate for demand accesses
system.cpu.dcache.demand_mshr_miss_rate::total     0.012034                       # mshr miss rate for demand accesses
system.cpu.dcache.overall_mshr_miss_rate::.cpu.data     0.012032                       # mshr miss rate for overall accesses
system.cpu.dcache.overall_mshr_miss_rate::total     0.012032                       # mshr miss rate for overall accesses
system.cpu.dcache.demand_avg_mshr_miss_latency::.cpu.data 17381.635089                       # average overall mshr miss latency
system.cpu.dcache.demand_avg_mshr_miss_latency::total 17381.635089                       # average overall mshr miss latency
system.cpu.dcache.overall_avg_mshr_miss_latency::.cpu.data 17386.309342                       # average overall mshr miss latency
system.cpu.dcache.overall_avg_mshr_miss_latency::total 17386.309342                       # average overall mshr miss latency
system.cpu.dcache.replacements                 527785                       # number of replacements
system.cpu.dcache.ReadReq_hits::.cpu.data     37082542                       # number of ReadReq hits
system.cpu.dcache.ReadReq_hits::total        37082542                       # number of ReadReq hits
system.cpu.dcache.ReadReq_misses::.cpu.data       456970                       # number of ReadReq misses
system.cpu.dcache.ReadReq_misses::total        456970                       # number of ReadReq misses
system.cpu.dcache.ReadReq_miss_latency::.cpu.data   8398681000                       # number of ReadReq miss cycles
system.cpu.dcache.ReadReq_miss_latency::total   8398681000                       # number of ReadReq miss cycles
system.cpu.dcache.ReadReq_accesses::.cpu.data     37539512                       # number of ReadReq accesses(hits+misses)
system.cpu.dcache.ReadReq_accesses::total     37539512                       # number of ReadReq accesses(hits+misses)
system.cpu.dcache.ReadReq_miss_rate::.cpu.data     0.012173                       # miss rate for ReadReq accesses
system.cpu.dcache.ReadReq_miss_rate::total     0.012173                       # miss rate for ReadReq accesses
system.cpu.dcache.ReadReq_avg_miss_latency::.cpu.data 18379.064271                       # average ReadReq miss latency
system.cpu.dcache.ReadReq_avg_miss_latency::total 18379.064271                       # average ReadReq miss latency
system.cpu.dcache.ReadReq_mshr_hits::.cpu.data        37556                       # number of ReadReq MSHR hits
system.cpu.dcache.ReadReq_mshr_hits::total        37556                       # number of ReadReq MSHR hits
system.cpu.dcache.ReadReq_mshr_misses::.cpu.data       419414                       # number of ReadReq MSHR misses
system.cpu.dcache.ReadReq_mshr_misses::total       419414                       # number of ReadReq MSHR misses
system.cpu.dcache.ReadReq_mshr_miss_latency::.cpu.data   7387585500                       # number of ReadReq MSHR miss cycles
system.cpu.dcache.ReadReq_mshr_miss_latency::total   7387585500                       # number of ReadReq MSHR miss cycles
system.cpu.dcache.ReadReq_mshr_miss_rate::.cpu.data     0.011173                       # mshr miss rate for ReadReq accesses
system.cpu.dcache.ReadReq_mshr_miss_rate::total     0.011173                       # mshr miss rate for ReadReq accesses
system.cpu.dcache.ReadReq_avg_mshr_miss_latency::.cpu.data 17614.065100                       # average ReadReq mshr miss latency
system.cpu.dcache.ReadReq_avg_mshr_miss_latency::total 17614.065100                       # average ReadReq mshr miss latency
system.cpu.dcache.WriteReq_hits::.cpu.data      6201966                       # number of WriteReq hits
system.cpu.dcache.WriteReq_hits::total        6201966                       # number of WriteReq hits
system.cpu.dcache.WriteReq_misses::.cpu.data       118826                       # number of WriteReq misses
system.cpu.dcache.WriteReq_misses::total       118826                       # number of WriteReq misses
system.cpu.dcache.WriteReq_miss_latency::.cpu.data   2132245500                       # number of WriteReq miss cycles
system.cpu.dcache.WriteReq_miss_latency::total   2132245500                       # number of WriteReq miss cycles
system.cpu.dcache.WriteReq_accesses::.cpu.data      6320792                       # number of WriteReq accesses(hits+misses)
system.cpu.dcache.WriteReq_accesses::total      6320792                       # number of WriteReq accesses(hits+misses)
system.cpu.dcache.WriteReq_miss_rate::.cpu.data     0.018799                       # miss rate for WriteReq accesses
system.cpu.dcache.WriteReq_miss_rate::total     0.018799                       # miss rate for WriteReq accesses
system.cpu.dcache.WriteReq_avg_miss_latency::.cpu.data 17944.267248                       # average WriteReq miss latency
system.cpu.dcache.WriteReq_avg_miss_latency::total 17944.267248                       # average WriteReq miss latency
system.cpu.dcache.WriteReq_mshr_hits::.cpu.data        10440                       # number of WriteReq MSHR hits
system.cpu.dcache.WriteReq_mshr_hits::total        10440                       # number of WriteReq MSHR hits
system.cpu.dcache.WriteReq_mshr_misses::.cpu.data       108386                       # number of WriteReq MSHR misses
system.cpu.dcache.WriteReq_mshr_misses::total       108386                       # number of WriteReq MSHR misses
system.cpu.dcache.WriteReq_mshr_miss_latency::.cpu.data   1786441500                       # number of WriteReq MSHR miss cycles
system.cpu.dcache.WriteReq_mshr_miss_latency::total   1786441500                       # number of WriteReq MSHR miss cycles
system.cpu.dcache.WriteReq_mshr_miss_rate::.cpu.data     0.017148                       # mshr miss rate for WriteReq accesses
system.cpu.dcache.WriteReq_mshr_miss_rate::total     0.017148                       # mshr miss rate for WriteReq accesses
system.cpu.dcache.WriteReq_avg_mshr_miss_latency::.cpu.data 16482.216338                       # average WriteReq mshr miss latency
system.cpu.dcache.WriteReq_avg_mshr_miss_latency::total 16482.216338                       # average WriteReq mshr miss latency
system.cpu.dcache.SoftPFReq_hits::.cpu.data         8611                       # number of SoftPFReq hits
system.cpu.dcache.SoftPFReq_hits::total          8611                       # number of SoftPFReq hits
system.cpu.dcache.SoftPFReq_misses::.cpu.data          100                       # number of SoftPFReq misses
system.cpu.dcache.SoftPFReq_misses::total          100                       # number of SoftPFReq misses
system.cpu.dcache.SoftPFReq_accesses::.cpu.data         8711                       # number of SoftPFReq accesses(hits+misses)
system.cpu.dcache.SoftPFReq_accesses::total         8711                       # number of SoftPFReq accesses(hits+misses)
system.cpu.dcache.SoftPFReq_miss_rate::.cpu.data     0.011480                       # miss rate for SoftPFReq accesses
system.cpu.dcache.SoftPFReq_miss_rate::total     0.011480                       # miss rate for SoftPFReq accesses
system.cpu.dcache.SoftPFReq_mshr_misses::.cpu.data           49                       # number of SoftPFReq MSHR misses
system.cpu.dcache.SoftPFReq_mshr_misses::total           49                       # number of SoftPFReq MSHR misses
system.cpu.dcache.SoftPFReq_mshr_miss_latency::.cpu.data      3319000                       # number of SoftPFReq MSHR miss cycles
system.cpu.dcache.SoftPFReq_mshr_miss_latency::total      3319000                       # number of SoftPFReq MSHR miss cycles
system.cpu.dcache.SoftPFReq_mshr_miss_rate::.cpu.data     0.005625                       # mshr miss rate for SoftPFReq accesses
system.cpu.dcache.SoftPFReq_mshr_miss_rate::total     0.005625                       # mshr miss rate for SoftPFReq accesses
system.cpu.dcache.SoftPFReq_avg_mshr_miss_latency::.cpu.data 67734.693878                       # average SoftPFReq mshr miss latency
system.cpu.dcache.SoftPFReq_avg_mshr_miss_latency::total 67734.693878                       # average SoftPFReq mshr miss latency
system.cpu.dcache.LoadLockedReq_hits::.cpu.data          166                       # number of LoadLockedReq hits
system.cpu.dcache.LoadLockedReq_hits::total          166                       # number of LoadLockedReq hits
system.cpu.dcache.LoadLockedReq_accesses::.cpu.data          166                       # number of LoadLockedReq accesses(hits+misses)
system.cpu.dcache.LoadLockedReq_accesses::total          166                       # number of LoadLockedReq accesses(hits+misses)
system.cpu.dcache.StoreCondReq_hits::.cpu.data          166                       # number of StoreCondReq hits
system.cpu.dcache.StoreCondReq_hits::total          166                       # number of StoreCondReq hits
system.cpu.dcache.StoreCondReq_accesses::.cpu.data          166                       # number of StoreCondReq accesses(hits+misses)
system.cpu.dcache.StoreCondReq_accesses::total          166                       # number of StoreCondReq accesses(hits+misses)
system.cpu.dcache.tags.pwrStateResidencyTicks::UNDEFINED  67352664000                       # Cumulative time (in ticks) in various power states
system.cpu.dcache.tags.tagsinuse            63.977427                       # Cycle average of tags in use
system.cpu.dcache.tags.total_refs            43821300                       # Total number of references to valid blocks.
system.cpu.dcache.tags.sampled_refs            527849                       # Sample count of references to valid blocks.
system.cpu.dcache.tags.avg_refs             83.018628                       # Average number of references to valid blocks.
system.cpu.dcache.tags.warmup_cycle            213500                       # Cycle when the warmup percentage was hit.
system.cpu.dcache.tags.occ_blocks::.cpu.data    63.977427                       # Average occupied blocks per requestor
system.cpu.dcache.tags.occ_percent::.cpu.data     0.999647                       # Average percentage of cache occupancy
system.cpu.dcache.tags.occ_percent::total     0.999647                       # Average percentage of cache occupancy
system.cpu.dcache.tags.occ_task_id_blocks::1024           64                       # Occupied blocks per task id
system.cpu.dcache.tags.age_task_id_blocks_1024::0            5                       # Occupied blocks per task id
system.cpu.dcache.tags.age_task_id_blocks_1024::1           29                       # Occupied blocks per task id
system.cpu.dcache.tags.age_task_id_blocks_1024::2           30                       # Occupied blocks per task id
system.cpu.dcache.tags.occ_task_id_percent::1024            1                       # Percentage of cache occupancy per task id
system.cpu.dcache.tags.tag_accesses          44397196                       # Number of tag accesses
system.cpu.dcache.tags.data_accesses         44397196                       # Number of data accesses
system.cpu.itb.walker.pwrStateResidencyTicks::UNDEFINED  67352664000                       # Cumulative time (in ticks) in various power states
system.cpu.itb.stage2_mmu.stage2_tlb.walker.pwrStateResidencyTicks::UNDEFINED  67352664000                       # Cumulative time (in ticks) in various power states

---------- End Simulation Statistics   ----------
