
---------- Begin Simulation Statistics ----------
final_tick                                18325032000                       # Number of ticks from beginning of simulation (restored from checkpoints and never reset)
host_inst_rate                                1318343                       # Simulator instruction rate (inst/s)
host_mem_usage                                 666564                       # Number of bytes of host memory used
host_op_rate                                  1526238                       # Simulator op (including micro ops) rate (op/s)
host_seconds                                     9.06                       # Real time elapsed on the host
host_tick_rate                             2022157378                       # Simulator tick rate (ticks/s)
sim_freq                                 1000000000000                       # Frequency of simulated ticks
sim_insts                                    11946875                       # Number of instructions simulated
sim_ops                                      13830928                       # Number of ops (including micro ops) simulated
sim_seconds                                  0.018325                       # Number of seconds simulated
sim_ticks                                 18325032000                       # Number of ticks simulated
system.cpu.Branches                           1999227                       # Number of branches fetched
system.cpu.committedInsts                    11946875                       # Number of instructions committed
system.cpu.committedOps                      13830928                       # Number of ops (including micro ops) committed
system.cpu.dtb.accesses                             0                       # DTB accesses
system.cpu.dtb.align_faults                         0                       # Number of TLB faults due to alignment restrictions
system.cpu.dtb.domain_faults                        0                       # Number of TLB faults due to domain restrictions
system.cpu.dtb.flush_entries                        0                       # Number of entries that have been flushed from TLB
system.cpu.dtb.flush_tlb                            0                       # Number of times complete TLB was flushed
system.cpu.dtb.flush_tlb_asid                       0                       # Number of times TLB was flushed by ASID
system.cpu.dtb.flush_tlb_mva                        0                       # Number of times TLB was flushed by MVA
system.cpu.dtb.flush_tlb_mva_asid                   0                       # Number of times TLB was flushed by MVA & ASID
system.cpu.dtb.hits                                 0                       # DTB hits
system.cpu.dtb.inst_accesses                        0                       # ITB inst accesses
system.cpu.dtb.inst_hits                            0                       # ITB inst hits
system.cpu.dtb.inst_misses                          0                       # ITB inst misses
system.cpu.dtb.misses                               0                       # DTB misses
system.cpu.dtb.perms_faults                         0                       # Number of TLB faults due to permissions restrictions
system.cpu.dtb.prefetch_faults                      0                       # Number of TLB faults due to prefetch
system.cpu.dtb.read_accesses                        0                       # DTB read accesses
system.cpu.dtb.read_hits                            0                       # DTB read hits
system.cpu.dtb.read_misses                          0                       # DTB read misses
system.cpu.dtb.stage2_mmu.stage2_tlb.accesses            0                       # DTB accesses
system.cpu.dtb.stage2_mmu.stage2_tlb.align_faults            0                       # Number of TLB faults due to alignment restrictions
system.cpu.dtb.stage2_mmu.stage2_tlb.domain_faults            0                       # Number of TLB faults due to domain restrictions
system.cpu.dtb.stage2_mmu.stage2_tlb.flush_entries            0                       # Number of entries that have been flushed from TLB
system.cpu.dtb.stage2_mmu.stage2_tlb.flush_tlb            0                       # Number of times complete TLB was flushed
system.cpu.dtb.stage2_mmu.stage2_tlb.flush_tlb_asid            0                       # Number of times TLB was flushed by ASID
system.cpu.dtb.stage2_mmu.stage2_tlb.flush_tlb_mva            0                       # Number of times TLB was flushed by MVA
system.cpu.dtb.stage2_mmu.stage2_tlb.flush_tlb_mva_asid            0                       # Number of times TLB was flushed by MVA & ASID
system.cpu.dtb.stage2_mmu.stage2_tlb.hits            0                       # DTB hits
system.cpu.dtb.stage2_mmu.stage2_tlb.inst_accesses            0                       # ITB inst accesses
system.cpu.dtb.stage2_mmu.stage2_tlb.inst_hits            0                       # ITB inst hits
system.cpu.dtb.stage2_mmu.stage2_tlb.inst_misses            0                       # ITB inst misses
system.cpu.dtb.stage2_mmu.stage2_tlb.misses            0                       # DTB misses
system.cpu.dtb.stage2_mmu.stage2_tlb.perms_faults            0                       # Number of TLB faults due to permissions restrictions
system.cpu.dtb.stage2_mmu.stage2_tlb.prefetch_faults            0                       # Number of TLB faults due to prefetch
system.cpu.dtb.stage2_mmu.stage2_tlb.read_accesses            0                       # DTB read accesses
system.cpu.dtb.stage2_mmu.stage2_tlb.read_hits            0                       # DTB read hits
system.cpu.dtb.stage2_mmu.stage2_tlb.read_misses            0                       # DTB read misses
system.cpu.dtb.stage2_mmu.stage2_tlb.walker.walkRequestOrigin_Requested::Data            0                       # Table walker requests started/completed, data/inst
system.cpu.dtb.stage2_mmu.stage2_tlb.walker.walkRequestOrigin_Requested::Inst            0                       # Table walker requests started/completed, data/inst
system.cpu.dtb.stage2_mmu.stage2_tlb.walker.walkRequestOrigin_Requested::total            0                       # Table walker requests started/completed, data/inst
system.cpu.dtb.stage2_mmu.stage2_tlb.walker.walkRequestOrigin_Completed::Data            0                       # Table walker requests started/completed, data/inst
system.cpu.dtb.stage2_mmu.stage2_tlb.walker.walkRequestOrigin_Completed::Inst            0                       # Table walker requests started/completed, data/inst
system.cpu.dtb.stage2_mmu.stage2_tlb.walker.walkRequestOrigin_Completed::total            0                       # Table walker requests started/completed, data/inst
system.cpu.dtb.stage2_mmu.stage2_tlb.walker.walkRequestOrigin::total            0                       # Table walker requests started/completed, data/inst
system.cpu.dtb.stage2_mmu.stage2_tlb.walker.walks            0                       # Table walker walks requested
system.cpu.dtb.stage2_mmu.stage2_tlb.write_accesses            0                       # DTB write accesses
system.cpu.dtb.stage2_mmu.stage2_tlb.write_hits            0                       # DTB write hits
system.cpu.dtb.stage2_mmu.stage2_tlb.write_misses            0                       # DTB write misses
system.cpu.dtb.walker.walkRequestOrigin_Requested::Data            0                       # Table walker requests started/completed, data/inst
system.cpu.dtb.walker.walkRequestOrigin_Requested::Inst            0                       # Table walker requests started/completed, data/inst
system.cpu.dtb.walker.walkRequestOrigin_Requested::total            0                       # Table walker requests started/completed, data/inst
system.cpu.dtb.walker.walkRequestOrigin_Completed::Data            0                       # Table walker requests started/completed, data/inst
system.cpu.dtb.walker.walkRequestOrigin_Completed::Inst            0                       # Table walker requests started/completed, data/inst
system.cpu.dtb.walker.walkRequestOrigin_Completed::total            0                       # Table walker requests started/completed, data/inst
system.cpu.dtb.walker.walkRequestOrigin::total            0                       # Table walker requests started/completed, data/inst
system.cpu.dtb.walker.walks                         0                       # Table walker walks requested
system.cpu.dtb.write_accesses                       0                       # DTB write accesses
system.cpu.dtb.write_hits                           0                       # DTB write hits
system.cpu.dtb.write_misses                         0                       # DTB write misses
system.cpu.idle_fraction                     0.000000                       # Percentage of idle cycles
system.cpu.itb.accesses                             0                       # DTB accesses
system.cpu.itb.align_faults                         0                       # Number of TLB faults due to alignment restrictions
system.cpu.itb.domain_faults                        0                       # Number of TLB faults due to domain restrictions
system.cpu.itb.flush_entries                        0                       # Number of entries that have been flushed from TLB
system.cpu.itb.flush_tlb                            0                       # Number of times complete TLB was flushed
system.cpu.itb.flush_tlb_asid                       0                       # Number of times TLB was flushed by ASID
system.cpu.itb.flush_tlb_mva                        0                       # Number of times TLB was flushed by MVA
system.cpu.itb.flush_tlb_mva_asid                   0                       # Number of times TLB was flushed by MVA & ASID
system.cpu.itb.hits                                 0                       # DTB hits
system.cpu.itb.inst_accesses                        0                       # ITB inst accesses
system.cpu.itb.inst_hits                            0                       # ITB inst hits
system.cpu.itb.inst_misses                          0                       # ITB inst misses
system.cpu.itb.misses                               0                       # DTB misses
system.cpu.itb.perms_faults                         0                       # Number of TLB faults due to permissions restrictions
system.cpu.itb.prefetch_faults                      0                       # Number of TLB faults due to prefetch
system.cpu.itb.read_accesses                        0                       # DTB read accesses
system.cpu.itb.read_hits                            0                       # DTB read hits
system.cpu.itb.read_misses                          0                       # DTB read misses
system.cpu.itb.stage2_mmu.stage2_tlb.accesses            0                       # DTB accesses
system.cpu.itb.stage2_mmu.stage2_tlb.align_faults            0                       # Number of TLB faults due to alignment restrictions
system.cpu.itb.stage2_mmu.stage2_tlb.domain_faults            0                       # Number of TLB faults due to domain restrictions
system.cpu.itb.stage2_mmu.stage2_tlb.flush_entries            0                       # Number of entries that have been flushed from TLB
system.cpu.itb.stage2_mmu.stage2_tlb.flush_tlb            0                       # Number of times complete TLB was flushed
system.cpu.itb.stage2_mmu.stage2_tlb.flush_tlb_asid            0                       # Number of times TLB was flushed by ASID
system.cpu.itb.stage2_mmu.stage2_tlb.flush_tlb_mva            0                       # Number of times TLB was flushed by MVA
system.cpu.itb.stage2_mmu.stage2_tlb.flush_tlb_mva_asid            0                       # Number of times TLB was flushed by MVA & ASID
system.cpu.itb.stage2_mmu.stage2_tlb.hits            0                       # DTB hits
system.cpu.itb.stage2_mmu.stage2_tlb.inst_accesses            0                       # ITB inst accesses
system.cpu.itb.stage2_mmu.stage2_tlb.inst_hits            0                       # ITB inst hits
system.cpu.itb.stage2_mmu.stage2_tlb.inst_misses            0                       # ITB inst misses
system.cpu.itb.stage2_mmu.stage2_tlb.misses            0                       # DTB misses
system.cpu.itb.stage2_mmu.stage2_tlb.perms_faults            0                       # Number of TLB faults due to permissions restrictions
system.cpu.itb.stage2_mmu.stage2_tlb.prefetch_faults            0                       # Number of TLB faults due to prefetch
system.cpu.itb.stage2_mmu.stage2_tlb.read_accesses            0                       # DTB read accesses
system.cpu.itb.stage2_mmu.stage2_tlb.read_hits            0                       # DTB read hits
system.cpu.itb.stage2_mmu.stage2_tlb.read_misses            0                       # DTB read misses
system.cpu.itb.stage2_mmu.stage2_tlb.walker.walkRequestOrigin_Requested::Data            0                       # Table walker requests started/completed, data/inst
system.cpu.itb.stage2_mmu.stage2_tlb.walker.walkRequestOrigin_Requested::Inst            0                       # Table walker requests started/completed, data/inst
system.cpu.itb.stage2_mmu.stage2_tlb.walker.walkRequestOrigin_Requested::total            0                       # Table walker requests started/completed, data/inst
system.cpu.itb.stage2_mmu.stage2_tlb.walker.walkRequestOrigin_Completed::Data            0                       # Table walker requests started/completed, data/inst
system.cpu.itb.stage2_mmu.stage2_tlb.walker.walkRequestOrigin_Completed::Inst            0                       # Table walker requests started/completed, data/inst
system.cpu.itb.stage2_mmu.stage2_tlb.walker.walkRequestOrigin_Completed::total            0                       # Table walker requests started/completed, data/inst
system.cpu.itb.stage2_mmu.stage2_tlb.walker.walkRequestOrigin::total            0                       # Table walker requests started/completed, data/inst
system.cpu.itb.stage2_mmu.stage2_tlb.walker.walks            0                       # Table walker walks requested
system.cpu.itb.stage2_mmu.stage2_tlb.write_accesses            0                       # DTB write accesses
system.cpu.itb.stage2_mmu.stage2_tlb.write_hits            0                       # DTB write hits
system.cpu.itb.stage2_mmu.stage2_tlb.write_misses            0                       # DTB write misses
system.cpu.itb.walker.walkRequestOrigin_Requested::Data            0                       # Table walker requests started/completed, data/inst
system.cpu.itb.walker.walkRequestOrigin_Requested::Inst            0                       # Table walker requests started/completed, data/inst
system.cpu.itb.walker.walkRequestOrigin_Requested::total            0                       # Table walker requests started/completed, data/inst
system.cpu.itb.walker.walkRequestOrigin_Completed::Data            0                       # Table walker requests started/completed, data/inst
system.cpu.itb.walker.walkRequestOrigin_Completed::Inst            0                       # Table walker requests started/completed, data/inst
system.cpu.itb.walker.walkRequestOrigin_Completed::total            0                       # Table walker requests started/completed, data/inst
system.cpu.itb.walker.walkRequestOrigin::total            0                       # Table walker requests started/completed, data/inst
system.cpu.itb.walker.walks                         0                       # Table walker walks requested
system.cpu.itb.write_accesses                       0                       # DTB write accesses
system.cpu.itb.write_hits                           0                       # DTB write hits
system.cpu.itb.write_misses                         0                       # DTB write misses
system.cpu.not_idle_fraction                 1.000000                       # Percentage of non-idle cycles
system.cpu.numCycles                         36650064                       # number of cpu cycles simulated
system.cpu.numWorkItemsCompleted                    0                       # number of work items this cpu completed
system.cpu.numWorkItemsStarted                      0                       # number of work items this cpu started
system.cpu.num_busy_cycles               36650063.998000                       # Number of busy cycles
system.cpu.num_cc_register_reads             49268749                       # number of times the CC registers were read
system.cpu.num_cc_register_writes             6493369                       # number of times the CC registers were written
system.cpu.num_conditional_control_insts      1204443                       # number of instructions that are conditional controls
system.cpu.num_fp_alu_accesses                      0                       # Number of float alu accesses
system.cpu.num_fp_insts                             0                       # number of float instructions
system.cpu.num_fp_register_reads                    0                       # number of times the floating registers were read
system.cpu.num_fp_register_writes                   0                       # number of times the floating registers were written
system.cpu.num_func_calls                      551020                       # number of times a function call or return occured
system.cpu.num_idle_cycles                   0.002000                       # Number of idle cycles
system.cpu.num_int_alu_accesses              12393479                       # Number of integer alu accesses
system.cpu.num_int_insts                     12393479                       # number of integer instructions
system.cpu.num_int_register_reads            19432731                       # number of times the integer registers were read
system.cpu.num_int_register_writes            8513146                       # number of times the integer registers were written
system.cpu.num_load_insts                     2566381                       # Number of load instructions
system.cpu.num_mem_refs                       4491474                       # number of memory refs
system.cpu.num_store_insts                    1925093                       # Number of store instructions
system.cpu.num_vec_alu_accesses                     0                       # Number of vector alu accesses
system.cpu.num_vec_insts                            0                       # number of vector instructions
system.cpu.num_vec_register_reads              122096                       # number of times the vector registers were read
system.cpu.num_vec_register_writes             122069                       # number of times the vector registers were written
system.cpu.op_class::No_OpClass                     0      0.00%      0.00% # Class of executed instruction
system.cpu.op_class::IntAlu                   9459499     67.12%     67.12% # Class of executed instruction
system.cpu.op_class::IntMult                   142498      1.01%     68.13% # Class of executed instruction
system.cpu.op_class::IntDiv                         0      0.00%     68.13% # Class of executed instruction
system.cpu.op_class::FloatAdd                       0      0.00%     68.13% # Class of executed instruction
system.cpu.op_class::FloatCmp                       0      0.00%     68.13% # Class of executed instruction
system.cpu.op_class::FloatCvt                       0      0.00%     68.13% # Class of executed instruction
system.cpu.op_class::FloatMult                      0      0.00%     68.13% # Class of executed instruction
system.cpu.op_class::FloatMultAcc                   0      0.00%     68.13% # Class of executed instruction
system.cpu.op_class::FloatDiv                       0      0.00%     68.13% # Class of executed instruction
system.cpu.op_class::FloatMisc                      0      0.00%     68.13% # Class of executed instruction
system.cpu.op_class::FloatSqrt                      0      0.00%     68.13% # Class of executed instruction
system.cpu.op_class::SimdAdd                        0      0.00%     68.13% # Class of executed instruction
system.cpu.op_class::SimdAddAcc                     0      0.00%     68.13% # Class of executed instruction
system.cpu.op_class::SimdAlu                        0      0.00%     68.13% # Class of executed instruction
system.cpu.op_class::SimdCmp                        0      0.00%     68.13% # Class of executed instruction
system.cpu.op_class::SimdCvt                        0      0.00%     68.13% # Class of executed instruction
system.cpu.op_class::SimdMisc                       0      0.00%     68.13% # Class of executed instruction
system.cpu.op_class::SimdMult                       0      0.00%     68.13% # Class of executed instruction
system.cpu.op_class::SimdMultAcc                    0      0.00%     68.13% # Class of executed instruction
system.cpu.op_class::SimdShift                      0      0.00%     68.13% # Class of executed instruction
system.cpu.op_class::SimdShiftAcc                   0      0.00%     68.13% # Class of executed instruction
system.cpu.op_class::SimdDiv                        0      0.00%     68.13% # Class of executed instruction
system.cpu.op_class::SimdSqrt                       0      0.00%     68.13% # Class of executed instruction
system.cpu.op_class::SimdFloatAdd                   0      0.00%     68.13% # Class of executed instruction
system.cpu.op_class::SimdFloatAlu                   0      0.00%     68.13% # Class of executed instruction
system.cpu.op_class::SimdFloatCmp                   0      0.00%     68.13% # Class of executed instruction
system.cpu.op_class::SimdFloatCvt                   0      0.00%     68.13% # Class of executed instruction
system.cpu.op_class::SimdFloatDiv                   0      0.00%     68.13% # Class of executed instruction
system.cpu.op_class::SimdFloatMisc                517      0.00%     68.13% # Class of executed instruction
system.cpu.op_class::SimdFloatMult                  0      0.00%     68.13% # Class of executed instruction
system.cpu.op_class::SimdFloatMultAcc               0      0.00%     68.13% # Class of executed instruction
system.cpu.op_class::SimdFloatSqrt                  0      0.00%     68.13% # Class of executed instruction
system.cpu.op_class::SimdReduceAdd                  0      0.00%     68.13% # Class of executed instruction
system.cpu.op_class::SimdReduceAlu                  0      0.00%     68.13% # Class of executed instruction
system.cpu.op_class::SimdReduceCmp                  0      0.00%     68.13% # Class of executed instruction
system.cpu.op_class::SimdFloatReduceAdd             0      0.00%     68.13% # Class of executed instruction
system.cpu.op_class::SimdFloatReduceCmp             0      0.00%     68.13% # Class of executed instruction
system.cpu.op_class::SimdAes                        0      0.00%     68.13% # Class of executed instruction
system.cpu.op_class::SimdAesMix                     0      0.00%     68.13% # Class of executed instruction
system.cpu.op_class::SimdSha1Hash                   0      0.00%     68.13% # Class of executed instruction
system.cpu.op_class::SimdSha1Hash2                  0      0.00%     68.13% # Class of executed instruction
system.cpu.op_class::SimdSha256Hash                 0      0.00%     68.13% # Class of executed instruction
system.cpu.op_class::SimdSha256Hash2                0      0.00%     68.13% # Class of executed instruction
system.cpu.op_class::SimdShaSigma2                  0      0.00%     68.13% # Class of executed instruction
system.cpu.op_class::SimdShaSigma3                  0      0.00%     68.13% # Class of executed instruction
system.cpu.op_class::SimdPredAlu                    0      0.00%     68.13% # Class of executed instruction
system.cpu.op_class::MemRead                  2566381     18.21%     86.34% # Class of executed instruction
system.cpu.op_class::MemWrite                 1925093     13.66%    100.00% # Class of executed instruction
system.cpu.op_class::FloatMemRead                   0      0.00%    100.00% # Class of executed instruction
system.cpu.op_class::FloatMemWrite                  0      0.00%    100.00% # Class of executed instruction
system.cpu.op_class::IprAccess                      0      0.00%    100.00% # Class of executed instruction
system.cpu.op_class::InstPrefetch                   0      0.00%    100.00% # Class of executed instruction
system.cpu.op_class::total                   14093988                       # Class of executed instruction
system.cpu.workload.numSyscalls                    20                       # Number of system calls
system.membus.snoop_filter.hit_multi_requests           16                       # Number of requests hitting in the snoop filter with multiple (>1) holders of the requested data.
system.membus.snoop_filter.hit_multi_snoops            0                       # Number of snoops hitting in the snoop filter with multiple (>1) holders of the requested data.
system.membus.snoop_filter.hit_single_requests         2152                       # Number of requests hitting in the snoop filter with a single holder of the requested data.
system.membus.snoop_filter.hit_single_snoops            0                       # Number of snoops hitting in the snoop filter with a single holder of the requested data.
system.membus.snoop_filter.tot_requests          5610                       # Total number of requests made to the snoop filter.
system.membus.snoop_filter.tot_snoops               0                       # Total number of snoops made to the snoop filter.
system.membus.pwrStateResidencyTicks::UNDEFINED  18325032000                       # Cumulative time (in ticks) in various power states
system.membus.trans_dist::ReadResp               1648                       # Transaction distribution
system.membus.trans_dist::WritebackDirty         1288                       # Transaction distribution
system.membus.trans_dist::WritebackClean          119                       # Transaction distribution
system.membus.trans_dist::CleanEvict              741                       # Transaction distribution
system.membus.trans_dist::ReadExReq              1814                       # Transaction distribution
system.membus.trans_dist::ReadExResp             1814                       # Transaction distribution
system.membus.trans_dist::ReadCleanReq            409                       # Transaction distribution
system.membus.trans_dist::ReadSharedReq          1239                       # Transaction distribution
system.membus.pkt_count_system.cpu.icache.mem_side::system.mem_ctrls.port          937                       # Packet count per connected master and slave (bytes)
system.membus.pkt_count_system.cpu.dcache.mem_side::system.mem_ctrls.port         8135                       # Packet count per connected master and slave (bytes)
system.membus.pkt_count::total                   9072                       # Packet count per connected master and slave (bytes)
system.membus.pkt_size_system.cpu.icache.mem_side::system.mem_ctrls.port        33792                       # Cumulative packet size per connected master and slave (bytes)
system.membus.pkt_size_system.cpu.dcache.mem_side::system.mem_ctrls.port       277824                       # Cumulative packet size per connected master and slave (bytes)
system.membus.pkt_size::total                  311616                       # Cumulative packet size per connected master and slave (bytes)
system.membus.snoops                                0                       # Total snoops (count)
system.membus.snoopTraffic                          0                       # Total snoop traffic (bytes)
system.membus.snoop_fanout::samples              3462                       # Request fanout histogram
system.membus.snoop_fanout::mean             0.005777                       # Request fanout histogram
system.membus.snoop_fanout::stdev            0.075798                       # Request fanout histogram
system.membus.snoop_fanout::underflows              0      0.00%      0.00% # Request fanout histogram
system.membus.snoop_fanout::0                    3442     99.42%     99.42% # Request fanout histogram
system.membus.snoop_fanout::1                      20      0.58%    100.00% # Request fanout histogram
system.membus.snoop_fanout::2                       0      0.00%    100.00% # Request fanout histogram
system.membus.snoop_fanout::overflows               0      0.00%    100.00% # Request fanout histogram
system.membus.snoop_fanout::min_value               0                       # Request fanout histogram
system.membus.snoop_fanout::max_value               1                       # Request fanout histogram
system.membus.snoop_fanout::total                3462                       # Request fanout histogram
system.membus.reqLayer0.occupancy            11593000                       # Layer occupancy (ticks)
system.membus.reqLayer0.utilization               0.1                       # Layer utilization (%)
system.membus.respLayer1.occupancy            2225124                       # Layer occupancy (ticks)
system.membus.respLayer1.utilization              0.0                       # Layer utilization (%)
system.membus.respLayer2.occupancy           16491974                       # Layer occupancy (ticks)
system.membus.respLayer2.utilization              0.1                       # Layer utilization (%)
system.voltage_domain.voltage                       1                       # Voltage in Volts
system.clk_domain.clock                          1000                       # Clock period in ticks
system.cpu_voltage_domain.voltage                   1                       # Voltage in Volts
system.mem_ctrls.pwrStateResidencyTicks::UNDEFINED  18325032000                       # Cumulative time (in ticks) in various power states
system.mem_ctrls.bytes_read::.cpu.inst          26176                       # Number of bytes read from this memory
system.mem_ctrls.bytes_read::.cpu.data         195392                       # Number of bytes read from this memory
system.mem_ctrls.bytes_read::total             221568                       # Number of bytes read from this memory
system.mem_ctrls.bytes_inst_read::.cpu.inst        26176                       # Number of instructions bytes read from this memory
system.mem_ctrls.bytes_inst_read::total         26176                       # Number of instructions bytes read from this memory
system.mem_ctrls.bytes_written::.writebacks        82432                       # Number of bytes written to this memory
system.mem_ctrls.bytes_written::total           82432                       # Number of bytes written to this memory
system.mem_ctrls.num_reads::.cpu.inst             409                       # Number of read requests responded to by this memory
system.mem_ctrls.num_reads::.cpu.data            3053                       # Number of read requests responded to by this memory
system.mem_ctrls.num_reads::total                3462                       # Number of read requests responded to by this memory
system.mem_ctrls.num_writes::.writebacks         1288                       # Number of write requests responded to by this memory
system.mem_ctrls.num_writes::total               1288                       # Number of write requests responded to by this memory
system.mem_ctrls.bw_read::.cpu.inst           1428429                       # Total read bandwidth from this memory (bytes/s)
system.mem_ctrls.bw_read::.cpu.data          10662573                       # Total read bandwidth from this memory (bytes/s)
system.mem_ctrls.bw_read::total              12091002                       # Total read bandwidth from this memory (bytes/s)
system.mem_ctrls.bw_inst_read::.cpu.inst      1428429                       # Instruction read bandwidth from this memory (bytes/s)
system.mem_ctrls.bw_inst_read::total          1428429                       # Instruction read bandwidth from this memory (bytes/s)
system.mem_ctrls.bw_write::.writebacks        4498328                       # Write bandwidth from this memory (bytes/s)
system.mem_ctrls.bw_write::total              4498328                       # Write bandwidth from this memory (bytes/s)
system.mem_ctrls.bw_total::.writebacks        4498328                       # Total bandwidth to/from this memory (bytes/s)
system.mem_ctrls.bw_total::.cpu.inst          1428429                       # Total bandwidth to/from this memory (bytes/s)
system.mem_ctrls.bw_total::.cpu.data         10662573                       # Total bandwidth to/from this memory (bytes/s)
system.mem_ctrls.bw_total::total             16589330                       # Total bandwidth to/from this memory (bytes/s)
system.mem_ctrls.avgPriority_.writebacks::samples      1228.00                       # Average QoS priority value for accepted requests
system.mem_ctrls.avgPriority_.cpu.inst::samples       382.00                       # Average QoS priority value for accepted requests
system.mem_ctrls.avgPriority_.cpu.data::samples      2831.00                       # Average QoS priority value for accepted requests
system.mem_ctrls.priorityMinLatency      0.000000017492                       # per QoS priority minimum request to response latency (s)
system.mem_ctrls.priorityMaxLatency      0.017404585652                       # per QoS priority maximum request to response latency (s)
system.mem_ctrls.numReadWriteTurnArounds           68                       # Number of turnarounds from READ to WRITE
system.mem_ctrls.numWriteReadTurnArounds           69                       # Number of turnarounds from WRITE to READ
system.mem_ctrls.numStayReadState               12461                       # Number of times bus staying in READ state
system.mem_ctrls.numStayWriteState               1104                       # Number of times bus staying in WRITE state
system.mem_ctrls.readReqs                        3462                       # Number of read requests accepted
system.mem_ctrls.writeReqs                       1406                       # Number of write requests accepted
system.mem_ctrls.readBursts                      3462                       # Number of DRAM read bursts, including those serviced by the write queue
system.mem_ctrls.writeBursts                     1406                       # Number of DRAM write bursts, including those merged in the write queue
system.mem_ctrls.servicedByWrQ                    249                       # Number of DRAM read bursts serviced by the write queue
system.mem_ctrls.mergedWrBursts                   178                       # Number of DRAM write bursts merged with an existing one
system.mem_ctrls.neitherReadNorWriteReqs            0                       # Number of requests that are neither read nor write
system.mem_ctrls.perBankRdBursts::0               206                       # Per bank write bursts
system.mem_ctrls.perBankRdBursts::1                10                       # Per bank write bursts
system.mem_ctrls.perBankRdBursts::2                43                       # Per bank write bursts
system.mem_ctrls.perBankRdBursts::3                26                       # Per bank write bursts
system.mem_ctrls.perBankRdBursts::4                11                       # Per bank write bursts
system.mem_ctrls.perBankRdBursts::5                15                       # Per bank write bursts
system.mem_ctrls.perBankRdBursts::6                42                       # Per bank write bursts
system.mem_ctrls.perBankRdBursts::7                35                       # Per bank write bursts
system.mem_ctrls.perBankRdBursts::8                58                       # Per bank write bursts
system.mem_ctrls.perBankRdBursts::9               274                       # Per bank write bursts
system.mem_ctrls.perBankRdBursts::10              256                       # Per bank write bursts
system.mem_ctrls.perBankRdBursts::11              186                       # Per bank write bursts
system.mem_ctrls.perBankRdBursts::12              339                       # Per bank write bursts
system.mem_ctrls.perBankRdBursts::13              134                       # Per bank write bursts
system.mem_ctrls.perBankRdBursts::14              184                       # Per bank write bursts
system.mem_ctrls.perBankRdBursts::15              136                       # Per bank write bursts
system.mem_ctrls.perBankRdBursts::16              239                       # Per bank write bursts
system.mem_ctrls.perBankRdBursts::17                3                       # Per bank write bursts
system.mem_ctrls.perBankRdBursts::18                0                       # Per bank write bursts
system.mem_ctrls.perBankRdBursts::19                0                       # Per bank write bursts
system.mem_ctrls.perBankRdBursts::20                4                       # Per bank write bursts
system.mem_ctrls.perBankRdBursts::21                8                       # Per bank write bursts
system.mem_ctrls.perBankRdBursts::22                5                       # Per bank write bursts
system.mem_ctrls.perBankRdBursts::23                0                       # Per bank write bursts
system.mem_ctrls.perBankRdBursts::24               18                       # Per bank write bursts
system.mem_ctrls.perBankRdBursts::25                6                       # Per bank write bursts
system.mem_ctrls.perBankRdBursts::26                1                       # Per bank write bursts
system.mem_ctrls.perBankRdBursts::27                3                       # Per bank write bursts
system.mem_ctrls.perBankRdBursts::28              173                       # Per bank write bursts
system.mem_ctrls.perBankRdBursts::29              284                       # Per bank write bursts
system.mem_ctrls.perBankRdBursts::30              254                       # Per bank write bursts
system.mem_ctrls.perBankRdBursts::31              260                       # Per bank write bursts
system.mem_ctrls.perBankWrBursts::0                93                       # Per bank write bursts
system.mem_ctrls.perBankWrBursts::1                 2                       # Per bank write bursts
system.mem_ctrls.perBankWrBursts::2                 9                       # Per bank write bursts
system.mem_ctrls.perBankWrBursts::3                 0                       # Per bank write bursts
system.mem_ctrls.perBankWrBursts::4                 0                       # Per bank write bursts
system.mem_ctrls.perBankWrBursts::5                 2                       # Per bank write bursts
system.mem_ctrls.perBankWrBursts::6                 0                       # Per bank write bursts
system.mem_ctrls.perBankWrBursts::7                 4                       # Per bank write bursts
system.mem_ctrls.perBankWrBursts::8                14                       # Per bank write bursts
system.mem_ctrls.perBankWrBursts::9                45                       # Per bank write bursts
system.mem_ctrls.perBankWrBursts::10              119                       # Per bank write bursts
system.mem_ctrls.perBankWrBursts::11               89                       # Per bank write bursts
system.mem_ctrls.perBankWrBursts::12              149                       # Per bank write bursts
system.mem_ctrls.perBankWrBursts::13               37                       # Per bank write bursts
system.mem_ctrls.perBankWrBursts::14               56                       # Per bank write bursts
system.mem_ctrls.perBankWrBursts::15               46                       # Per bank write bursts
system.mem_ctrls.perBankWrBursts::16              116                       # Per bank write bursts
system.mem_ctrls.perBankWrBursts::17                0                       # Per bank write bursts
system.mem_ctrls.perBankWrBursts::18                0                       # Per bank write bursts
system.mem_ctrls.perBankWrBursts::19                0                       # Per bank write bursts
system.mem_ctrls.perBankWrBursts::20                0                       # Per bank write bursts
system.mem_ctrls.perBankWrBursts::21                2                       # Per bank write bursts
system.mem_ctrls.perBankWrBursts::22                0                       # Per bank write bursts
system.mem_ctrls.perBankWrBursts::23                0                       # Per bank write bursts
system.mem_ctrls.perBankWrBursts::24                5                       # Per bank write bursts
system.mem_ctrls.perBankWrBursts::25                0                       # Per bank write bursts
system.mem_ctrls.perBankWrBursts::26                0                       # Per bank write bursts
system.mem_ctrls.perBankWrBursts::27                3                       # Per bank write bursts
system.mem_ctrls.perBankWrBursts::28              112                       # Per bank write bursts
system.mem_ctrls.perBankWrBursts::29               24                       # Per bank write bursts
system.mem_ctrls.perBankWrBursts::30              115                       # Per bank write bursts
system.mem_ctrls.perBankWrBursts::31              131                       # Per bank write bursts
system.mem_ctrls.avgRdQLen                       1.13                       # Average read queue length when enqueuing
system.mem_ctrls.avgWrQLen                      52.28                       # Average write queue length when enqueuing
system.mem_ctrls.totQLat                     40301908                       # Total ticks spent queuing
system.mem_ctrls.totBusLat                   10705716                       # Total ticks spent in databus transfers
system.mem_ctrls.totMemAccLat                96503704                       # Total ticks spent from burst creation until serviced by the DRAM
system.mem_ctrls.avgQLat                     12543.39                       # Average queueing delay per DRAM burst
system.mem_ctrls.avgBusLat                    3332.00                       # Average bus latency per DRAM burst
system.mem_ctrls.avgMemAccLat                30035.39                       # Average memory access latency per DRAM burst
system.mem_ctrls.numRdRetry                         0                       # Number of times read queue was full causing retry
system.mem_ctrls.numWrRetry                         0                       # Number of times write queue was full causing retry
system.mem_ctrls.readRowHits                     2286                       # Number of row buffer hits during reads
system.mem_ctrls.writeRowHits                     988                       # Number of row buffer hits during writes
system.mem_ctrls.readRowHitRate                 71.15                       # Row buffer hit rate for reads
system.mem_ctrls.writeRowHitRate                80.46                       # Row buffer hit rate for writes
system.mem_ctrls.readPktSize::0                     0                       # Read request sizes (log2)
system.mem_ctrls.readPktSize::1                     0                       # Read request sizes (log2)
system.mem_ctrls.readPktSize::2                     0                       # Read request sizes (log2)
system.mem_ctrls.readPktSize::3                     0                       # Read request sizes (log2)
system.mem_ctrls.readPktSize::4                     0                       # Read request sizes (log2)
system.mem_ctrls.readPktSize::5                     0                       # Read request sizes (log2)
system.mem_ctrls.readPktSize::6                  3462                       # Read request sizes (log2)
system.mem_ctrls.writePktSize::0                    0                       # Write request sizes (log2)
system.mem_ctrls.writePktSize::1                    0                       # Write request sizes (log2)
system.mem_ctrls.writePktSize::2                    0                       # Write request sizes (log2)
system.mem_ctrls.writePktSize::3                    0                       # Write request sizes (log2)
system.mem_ctrls.writePktSize::4                    0                       # Write request sizes (log2)
system.mem_ctrls.writePktSize::5                    0                       # Write request sizes (log2)
system.mem_ctrls.writePktSize::6                 1406                       # Write request sizes (log2)
system.mem_ctrls.rdQLenPdf::0                    2933                       # What read queue length does an incoming req see
system.mem_ctrls.rdQLenPdf::1                     263                       # What read queue length does an incoming req see
system.mem_ctrls.rdQLenPdf::2                      13                       # What read queue length does an incoming req see
system.mem_ctrls.rdQLenPdf::3                       4                       # What read queue length does an incoming req see
system.mem_ctrls.rdQLenPdf::4                       0                       # What read queue length does an incoming req see
system.mem_ctrls.rdQLenPdf::5                       0                       # What read queue length does an incoming req see
system.mem_ctrls.rdQLenPdf::6                       0                       # What read queue length does an incoming req see
system.mem_ctrls.rdQLenPdf::7                       0                       # What read queue length does an incoming req see
system.mem_ctrls.rdQLenPdf::8                       0                       # What read queue length does an incoming req see
system.mem_ctrls.rdQLenPdf::9                       0                       # What read queue length does an incoming req see
system.mem_ctrls.rdQLenPdf::10                      0                       # What read queue length does an incoming req see
system.mem_ctrls.rdQLenPdf::11                      0                       # What read queue length does an incoming req see
system.mem_ctrls.rdQLenPdf::12                      0                       # What read queue length does an incoming req see
system.mem_ctrls.rdQLenPdf::13                      0                       # What read queue length does an incoming req see
system.mem_ctrls.rdQLenPdf::14                      0                       # What read queue length does an incoming req see
system.mem_ctrls.rdQLenPdf::15                      0                       # What read queue length does an incoming req see
system.mem_ctrls.rdQLenPdf::16                      0                       # What read queue length does an incoming req see
system.mem_ctrls.rdQLenPdf::17                      0                       # What read queue length does an incoming req see
system.mem_ctrls.rdQLenPdf::18                      0                       # What read queue length does an incoming req see
system.mem_ctrls.rdQLenPdf::19                      0                       # What read queue length does an incoming req see
system.mem_ctrls.rdQLenPdf::20                      0                       # What read queue length does an incoming req see
system.mem_ctrls.rdQLenPdf::21                      0                       # What read queue length does an incoming req see
system.mem_ctrls.rdQLenPdf::22                      0                       # What read queue length does an incoming req see
system.mem_ctrls.rdQLenPdf::23                      0                       # What read queue length does an incoming req see
system.mem_ctrls.rdQLenPdf::24                      0                       # What read queue length does an incoming req see
system.mem_ctrls.rdQLenPdf::25                      0                       # What read queue length does an incoming req see
system.mem_ctrls.rdQLenPdf::26                      0                       # What read queue length does an incoming req see
system.mem_ctrls.rdQLenPdf::27                      0                       # What read queue length does an incoming req see
system.mem_ctrls.rdQLenPdf::28                      0                       # What read queue length does an incoming req see
system.mem_ctrls.rdQLenPdf::29                      0                       # What read queue length does an incoming req see
system.mem_ctrls.rdQLenPdf::30                      0                       # What read queue length does an incoming req see
system.mem_ctrls.rdQLenPdf::31                      0                       # What read queue length does an incoming req see
system.mem_ctrls.rdQLenPdf::32                      0                       # What read queue length does an incoming req see
system.mem_ctrls.rdQLenPdf::33                      0                       # What read queue length does an incoming req see
system.mem_ctrls.rdQLenPdf::34                      0                       # What read queue length does an incoming req see
system.mem_ctrls.rdQLenPdf::35                      0                       # What read queue length does an incoming req see
system.mem_ctrls.rdQLenPdf::36                      0                       # What read queue length does an incoming req see
system.mem_ctrls.rdQLenPdf::37                      0                       # What read queue length does an incoming req see
system.mem_ctrls.rdQLenPdf::38                      0                       # What read queue length does an incoming req see
system.mem_ctrls.rdQLenPdf::39                      0                       # What read queue length does an incoming req see
system.mem_ctrls.rdQLenPdf::40                      0                       # What read queue length does an incoming req see
system.mem_ctrls.rdQLenPdf::41                      0                       # What read queue length does an incoming req see
system.mem_ctrls.rdQLenPdf::42                      0                       # What read queue length does an incoming req see
system.mem_ctrls.rdQLenPdf::43                      0                       # What read queue length does an incoming req see
system.mem_ctrls.rdQLenPdf::44                      0                       # What read queue length does an incoming req see
system.mem_ctrls.rdQLenPdf::45                      0                       # What read queue length does an incoming req see
system.mem_ctrls.rdQLenPdf::46                      0                       # What read queue length does an incoming req see
system.mem_ctrls.rdQLenPdf::47                      0                       # What read queue length does an incoming req see
system.mem_ctrls.rdQLenPdf::48                      0                       # What read queue length does an incoming req see
system.mem_ctrls.rdQLenPdf::49                      0                       # What read queue length does an incoming req see
system.mem_ctrls.rdQLenPdf::50                      0                       # What read queue length does an incoming req see
system.mem_ctrls.rdQLenPdf::51                      0                       # What read queue length does an incoming req see
system.mem_ctrls.rdQLenPdf::52                      0                       # What read queue length does an incoming req see
system.mem_ctrls.rdQLenPdf::53                      0                       # What read queue length does an incoming req see
system.mem_ctrls.rdQLenPdf::54                      0                       # What read queue length does an incoming req see
system.mem_ctrls.rdQLenPdf::55                      0                       # What read queue length does an incoming req see
system.mem_ctrls.rdQLenPdf::56                      0                       # What read queue length does an incoming req see
system.mem_ctrls.rdQLenPdf::57                      0                       # What read queue length does an incoming req see
system.mem_ctrls.rdQLenPdf::58                      0                       # What read queue length does an incoming req see
system.mem_ctrls.rdQLenPdf::59                      0                       # What read queue length does an incoming req see
system.mem_ctrls.rdQLenPdf::60                      0                       # What read queue length does an incoming req see
system.mem_ctrls.rdQLenPdf::61                      0                       # What read queue length does an incoming req see
system.mem_ctrls.rdQLenPdf::62                      0                       # What read queue length does an incoming req see
system.mem_ctrls.rdQLenPdf::63                      0                       # What read queue length does an incoming req see
system.mem_ctrls.wrQLenPdf::0                       1                       # What write queue length does an incoming req see
system.mem_ctrls.wrQLenPdf::1                       1                       # What write queue length does an incoming req see
system.mem_ctrls.wrQLenPdf::2                       1                       # What write queue length does an incoming req see
system.mem_ctrls.wrQLenPdf::3                       1                       # What write queue length does an incoming req see
system.mem_ctrls.wrQLenPdf::4                       1                       # What write queue length does an incoming req see
system.mem_ctrls.wrQLenPdf::5                       1                       # What write queue length does an incoming req see
system.mem_ctrls.wrQLenPdf::6                       1                       # What write queue length does an incoming req see
system.mem_ctrls.wrQLenPdf::7                       1                       # What write queue length does an incoming req see
system.mem_ctrls.wrQLenPdf::8                       1                       # What write queue length does an incoming req see
system.mem_ctrls.wrQLenPdf::9                       1                       # What write queue length does an incoming req see
system.mem_ctrls.wrQLenPdf::10                      1                       # What write queue length does an incoming req see
system.mem_ctrls.wrQLenPdf::11                      1                       # What write queue length does an incoming req see
system.mem_ctrls.wrQLenPdf::12                      1                       # What write queue length does an incoming req see
system.mem_ctrls.wrQLenPdf::13                      1                       # What write queue length does an incoming req see
system.mem_ctrls.wrQLenPdf::14                      1                       # What write queue length does an incoming req see
system.mem_ctrls.wrQLenPdf::15                      1                       # What write queue length does an incoming req see
system.mem_ctrls.wrQLenPdf::16                      1                       # What write queue length does an incoming req see
system.mem_ctrls.wrQLenPdf::17                      1                       # What write queue length does an incoming req see
system.mem_ctrls.wrQLenPdf::18                      1                       # What write queue length does an incoming req see
system.mem_ctrls.wrQLenPdf::19                      1                       # What write queue length does an incoming req see
system.mem_ctrls.wrQLenPdf::20                      1                       # What write queue length does an incoming req see
system.mem_ctrls.wrQLenPdf::21                      1                       # What write queue length does an incoming req see
system.mem_ctrls.wrQLenPdf::22                      1                       # What write queue length does an incoming req see
system.mem_ctrls.wrQLenPdf::23                      1                       # What write queue length does an incoming req see
system.mem_ctrls.wrQLenPdf::24                      1                       # What write queue length does an incoming req see
system.mem_ctrls.wrQLenPdf::25                      1                       # What write queue length does an incoming req see
system.mem_ctrls.wrQLenPdf::26                      1                       # What write queue length does an incoming req see
system.mem_ctrls.wrQLenPdf::27                      1                       # What write queue length does an incoming req see
system.mem_ctrls.wrQLenPdf::28                      1                       # What write queue length does an incoming req see
system.mem_ctrls.wrQLenPdf::29                      1                       # What write queue length does an incoming req see
system.mem_ctrls.wrQLenPdf::30                      1                       # What write queue length does an incoming req see
system.mem_ctrls.wrQLenPdf::31                      1                       # What write queue length does an incoming req see
system.mem_ctrls.wrQLenPdf::32                      1                       # What write queue length does an incoming req see
system.mem_ctrls.wrQLenPdf::33                      1                       # What write queue length does an incoming req see
system.mem_ctrls.wrQLenPdf::34                      1                       # What write queue length does an incoming req see
system.mem_ctrls.wrQLenPdf::35                      1                       # What write queue length does an incoming req see
system.mem_ctrls.wrQLenPdf::36                      1                       # What write queue length does an incoming req see
system.mem_ctrls.wrQLenPdf::37                      1                       # What write queue length does an incoming req see
system.mem_ctrls.wrQLenPdf::38                      1                       # What write queue length does an incoming req see
system.mem_ctrls.wrQLenPdf::39                      1                       # What write queue length does an incoming req see
system.mem_ctrls.wrQLenPdf::40                      1                       # What write queue length does an incoming req see
system.mem_ctrls.wrQLenPdf::41                      1                       # What write queue length does an incoming req see
system.mem_ctrls.wrQLenPdf::42                      1                       # What write queue length does an incoming req see
system.mem_ctrls.wrQLenPdf::43                      1                       # What write queue length does an incoming req see
system.mem_ctrls.wrQLenPdf::44                      1                       # What write queue length does an incoming req see
system.mem_ctrls.wrQLenPdf::45                      1                       # What write queue length does an incoming req see
system.mem_ctrls.wrQLenPdf::46                      1                       # What write queue length does an incoming req see
system.mem_ctrls.wrQLenPdf::47                     38                       # What write queue length does an incoming req see
system.mem_ctrls.wrQLenPdf::48                     38                       # What write queue length does an incoming req see
system.mem_ctrls.wrQLenPdf::49                     58                       # What write queue length does an incoming req see
system.mem_ctrls.wrQLenPdf::50                     67                       # What write queue length does an incoming req see
system.mem_ctrls.wrQLenPdf::51                     68                       # What write queue length does an incoming req see
system.mem_ctrls.wrQLenPdf::52                     71                       # What write queue length does an incoming req see
system.mem_ctrls.wrQLenPdf::53                     71                       # What write queue length does an incoming req see
system.mem_ctrls.wrQLenPdf::54                     73                       # What write queue length does an incoming req see
system.mem_ctrls.wrQLenPdf::55                     69                       # What write queue length does an incoming req see
system.mem_ctrls.wrQLenPdf::56                     69                       # What write queue length does an incoming req see
system.mem_ctrls.wrQLenPdf::57                     70                       # What write queue length does an incoming req see
system.mem_ctrls.wrQLenPdf::58                     73                       # What write queue length does an incoming req see
system.mem_ctrls.wrQLenPdf::59                     70                       # What write queue length does an incoming req see
system.mem_ctrls.wrQLenPdf::60                     70                       # What write queue length does an incoming req see
system.mem_ctrls.wrQLenPdf::61                     69                       # What write queue length does an incoming req see
system.mem_ctrls.wrQLenPdf::62                     69                       # What write queue length does an incoming req see
system.mem_ctrls.wrQLenPdf::63                     69                       # What write queue length does an incoming req see
system.mem_ctrls.wrQLenPdf::64                     69                       # What write queue length does an incoming req see
system.mem_ctrls.wrQLenPdf::65                      0                       # What write queue length does an incoming req see
system.mem_ctrls.wrQLenPdf::66                      0                       # What write queue length does an incoming req see
system.mem_ctrls.wrQLenPdf::67                      0                       # What write queue length does an incoming req see
system.mem_ctrls.wrQLenPdf::68                      0                       # What write queue length does an incoming req see
system.mem_ctrls.wrQLenPdf::69                      0                       # What write queue length does an incoming req see
system.mem_ctrls.wrQLenPdf::70                      0                       # What write queue length does an incoming req see
system.mem_ctrls.wrQLenPdf::71                      0                       # What write queue length does an incoming req see
system.mem_ctrls.wrQLenPdf::72                      0                       # What write queue length does an incoming req see
system.mem_ctrls.wrQLenPdf::73                      0                       # What write queue length does an incoming req see
system.mem_ctrls.wrQLenPdf::74                      0                       # What write queue length does an incoming req see
system.mem_ctrls.wrQLenPdf::75                      0                       # What write queue length does an incoming req see
system.mem_ctrls.wrQLenPdf::76                      0                       # What write queue length does an incoming req see
system.mem_ctrls.wrQLenPdf::77                      0                       # What write queue length does an incoming req see
system.mem_ctrls.wrQLenPdf::78                      0                       # What write queue length does an incoming req see
system.mem_ctrls.wrQLenPdf::79                      0                       # What write queue length does an incoming req see
system.mem_ctrls.wrQLenPdf::80                      0                       # What write queue length does an incoming req see
system.mem_ctrls.wrQLenPdf::81                      0                       # What write queue length does an incoming req see
system.mem_ctrls.wrQLenPdf::82                      0                       # What write queue length does an incoming req see
system.mem_ctrls.wrQLenPdf::83                      0                       # What write queue length does an incoming req see
system.mem_ctrls.wrQLenPdf::84                      0                       # What write queue length does an incoming req see
system.mem_ctrls.wrQLenPdf::85                      0                       # What write queue length does an incoming req see
system.mem_ctrls.wrQLenPdf::86                      0                       # What write queue length does an incoming req see
system.mem_ctrls.wrQLenPdf::87                      0                       # What write queue length does an incoming req see
system.mem_ctrls.wrQLenPdf::88                      0                       # What write queue length does an incoming req see
system.mem_ctrls.wrQLenPdf::89                      0                       # What write queue length does an incoming req see
system.mem_ctrls.wrQLenPdf::90                      0                       # What write queue length does an incoming req see
system.mem_ctrls.wrQLenPdf::91                      0                       # What write queue length does an incoming req see
system.mem_ctrls.wrQLenPdf::92                      0                       # What write queue length does an incoming req see
system.mem_ctrls.wrQLenPdf::93                      0                       # What write queue length does an incoming req see
system.mem_ctrls.wrQLenPdf::94                      0                       # What write queue length does an incoming req see
system.mem_ctrls.wrQLenPdf::95                      0                       # What write queue length does an incoming req see
system.mem_ctrls.wrQLenPdf::96                      0                       # What write queue length does an incoming req see
system.mem_ctrls.wrQLenPdf::97                      0                       # What write queue length does an incoming req see
system.mem_ctrls.wrQLenPdf::98                      0                       # What write queue length does an incoming req see
system.mem_ctrls.wrQLenPdf::99                      0                       # What write queue length does an incoming req see
system.mem_ctrls.wrQLenPdf::100                     0                       # What write queue length does an incoming req see
system.mem_ctrls.wrQLenPdf::101                     0                       # What write queue length does an incoming req see
system.mem_ctrls.wrQLenPdf::102                     0                       # What write queue length does an incoming req see
system.mem_ctrls.wrQLenPdf::103                     0                       # What write queue length does an incoming req see
system.mem_ctrls.wrQLenPdf::104                     0                       # What write queue length does an incoming req see
system.mem_ctrls.wrQLenPdf::105                     0                       # What write queue length does an incoming req see
system.mem_ctrls.wrQLenPdf::106                     0                       # What write queue length does an incoming req see
system.mem_ctrls.wrQLenPdf::107                     0                       # What write queue length does an incoming req see
system.mem_ctrls.wrQLenPdf::108                     0                       # What write queue length does an incoming req see
system.mem_ctrls.wrQLenPdf::109                     0                       # What write queue length does an incoming req see
system.mem_ctrls.wrQLenPdf::110                     0                       # What write queue length does an incoming req see
system.mem_ctrls.wrQLenPdf::111                     0                       # What write queue length does an incoming req see
system.mem_ctrls.wrQLenPdf::112                     0                       # What write queue length does an incoming req see
system.mem_ctrls.wrQLenPdf::113                     0                       # What write queue length does an incoming req see
system.mem_ctrls.wrQLenPdf::114                     0                       # What write queue length does an incoming req see
system.mem_ctrls.wrQLenPdf::115                     0                       # What write queue length does an incoming req see
system.mem_ctrls.wrQLenPdf::116                     0                       # What write queue length does an incoming req see
system.mem_ctrls.wrQLenPdf::117                     0                       # What write queue length does an incoming req see
system.mem_ctrls.wrQLenPdf::118                     0                       # What write queue length does an incoming req see
system.mem_ctrls.wrQLenPdf::119                     0                       # What write queue length does an incoming req see
system.mem_ctrls.wrQLenPdf::120                     0                       # What write queue length does an incoming req see
system.mem_ctrls.wrQLenPdf::121                     0                       # What write queue length does an incoming req see
system.mem_ctrls.wrQLenPdf::122                     0                       # What write queue length does an incoming req see
system.mem_ctrls.wrQLenPdf::123                     0                       # What write queue length does an incoming req see
system.mem_ctrls.wrQLenPdf::124                     0                       # What write queue length does an incoming req see
system.mem_ctrls.wrQLenPdf::125                     0                       # What write queue length does an incoming req see
system.mem_ctrls.wrQLenPdf::126                     0                       # What write queue length does an incoming req see
system.mem_ctrls.wrQLenPdf::127                     0                       # What write queue length does an incoming req see
system.mem_ctrls.bytesPerActivate::samples         1099                       # Bytes accessed per row activation
system.mem_ctrls.bytesPerActivate::mean    252.040036                       # Bytes accessed per row activation
system.mem_ctrls.bytesPerActivate::gmean   158.843571                       # Bytes accessed per row activation
system.mem_ctrls.bytesPerActivate::stdev   264.752333                       # Bytes accessed per row activation
system.mem_ctrls.bytesPerActivate::0-127          477     43.40%     43.40% # Bytes accessed per row activation
system.mem_ctrls.bytesPerActivate::128-255          239     21.75%     65.15% # Bytes accessed per row activation
system.mem_ctrls.bytesPerActivate::256-383          141     12.83%     77.98% # Bytes accessed per row activation
system.mem_ctrls.bytesPerActivate::384-511           39      3.55%     81.53% # Bytes accessed per row activation
system.mem_ctrls.bytesPerActivate::512-639           71      6.46%     87.99% # Bytes accessed per row activation
system.mem_ctrls.bytesPerActivate::640-767           52      4.73%     92.72% # Bytes accessed per row activation
system.mem_ctrls.bytesPerActivate::768-895           11      1.00%     93.72% # Bytes accessed per row activation
system.mem_ctrls.bytesPerActivate::896-1023            9      0.82%     94.54% # Bytes accessed per row activation
system.mem_ctrls.bytesPerActivate::1024-1151           60      5.46%    100.00% # Bytes accessed per row activation
system.mem_ctrls.bytesPerActivate::total         1099                       # Bytes accessed per row activation
system.mem_ctrls.rdPerTurnAround::samples           69                       # Reads before turning the bus around for writes
system.mem_ctrls.rdPerTurnAround::mean      46.565217                       # Reads before turning the bus around for writes
system.mem_ctrls.rdPerTurnAround::gmean     23.836829                       # Reads before turning the bus around for writes
system.mem_ctrls.rdPerTurnAround::stdev    142.051304                       # Reads before turning the bus around for writes
system.mem_ctrls.rdPerTurnAround::0-31             55     79.71%     79.71% # Reads before turning the bus around for writes
system.mem_ctrls.rdPerTurnAround::32-63             8     11.59%     91.30% # Reads before turning the bus around for writes
system.mem_ctrls.rdPerTurnAround::64-95             3      4.35%     95.65% # Reads before turning the bus around for writes
system.mem_ctrls.rdPerTurnAround::96-127            1      1.45%     97.10% # Reads before turning the bus around for writes
system.mem_ctrls.rdPerTurnAround::384-415            1      1.45%     98.55% # Reads before turning the bus around for writes
system.mem_ctrls.rdPerTurnAround::1120-1151            1      1.45%    100.00% # Reads before turning the bus around for writes
system.mem_ctrls.rdPerTurnAround::total            69                       # Reads before turning the bus around for writes
system.mem_ctrls.wrPerTurnAround::samples           68                       # Writes before turning the bus around for reads
system.mem_ctrls.wrPerTurnAround::mean      17.102941                       # Writes before turning the bus around for reads
system.mem_ctrls.wrPerTurnAround::gmean     17.074192                       # Writes before turning the bus around for reads
system.mem_ctrls.wrPerTurnAround::stdev      0.994608                       # Writes before turning the bus around for reads
system.mem_ctrls.wrPerTurnAround::16               30     44.12%     44.12% # Writes before turning the bus around for reads
system.mem_ctrls.wrPerTurnAround::17                1      1.47%     45.59% # Writes before turning the bus around for reads
system.mem_ctrls.wrPerTurnAround::18               37     54.41%    100.00% # Writes before turning the bus around for reads
system.mem_ctrls.wrPerTurnAround::total            68                       # Writes before turning the bus around for reads
system.mem_ctrls.bytesReadDRAM                 205632                       # Total number of bytes read from DRAM
system.mem_ctrls.bytesReadWrQ                   15936                       # Total number of bytes read from write queue
system.mem_ctrls.bytesWritten                   75072                       # Total number of bytes written to DRAM
system.mem_ctrls.bytesReadSys                  221568                       # Total read bytes from the system interface side
system.mem_ctrls.bytesWrittenSys                89984                       # Total written bytes from the system interface side
system.mem_ctrls.avgRdBW                        11.22                       # Average DRAM read bandwidth in MiByte/s
system.mem_ctrls.avgWrBW                         4.10                       # Average achieved write bandwidth in MiByte/s
system.mem_ctrls.avgRdBWSys                     12.09                       # Average system read bandwidth in MiByte/s
system.mem_ctrls.avgWrBWSys                      4.91                       # Average system write bandwidth in MiByte/s
system.mem_ctrls.peakBW                      19207.00                       # Theoretical peak bandwidth in MiByte/s
system.mem_ctrls.busUtil                         0.08                       # Data bus utilization in percentage
system.mem_ctrls.busUtilRead                     0.06                       # Data bus utilization in percentage for reads
system.mem_ctrls.busUtilWrite                    0.02                       # Data bus utilization in percentage for writes
system.mem_ctrls.totGap                   18325018000                       # Total gap between requests
system.mem_ctrls.avgGap                    3764383.32                       # Average gap between requests
system.mem_ctrls.masterReadBytes::.cpu.inst        24448                       # Per-master bytes read from memory
system.mem_ctrls.masterReadBytes::.cpu.data       181184                       # Per-master bytes read from memory
system.mem_ctrls.masterWriteBytes::.writebacks        75072                       # Per-master bytes write to memory
system.mem_ctrls.masterReadRate::.cpu.inst 1334131.367410436040                       # Per-master bytes read from memory rate (Bytes/sec)
system.mem_ctrls.masterReadRate::.cpu.data 9887240.578897761181                       # Per-master bytes read from memory rate (Bytes/sec)
system.mem_ctrls.masterWriteRate::.writebacks 4096691.345477595460                       # Per-master bytes write to memory rate (Bytes/sec)
system.mem_ctrls.masterReadAccesses::.cpu.inst          409                       # Per-master read serviced memory accesses
system.mem_ctrls.masterReadAccesses::.cpu.data         3053                       # Per-master read serviced memory accesses
system.mem_ctrls.masterWriteAccesses::.writebacks         1406                       # Per-master write serviced memory accesses
system.mem_ctrls.masterReadTotalLat::.cpu.inst      9764876                       # Per-master read total memory access latency
system.mem_ctrls.masterReadTotalLat::.cpu.data     86738828                       # Per-master read total memory access latency
system.mem_ctrls.masterWriteTotalLat::.writebacks 710070513640                       # Per-master write total memory access latency
system.mem_ctrls.masterReadAvgLat::.cpu.inst     23875.00                       # Per-master read average memory access latency
system.mem_ctrls.masterReadAvgLat::.cpu.data     28411.01                       # Per-master read average memory access latency
system.mem_ctrls.masterWriteAvgLat::.writebacks 505028814.82                       # Per-master write average memory access latency
system.mem_ctrls.pageHitRate                    73.72                       # Row buffer hit rate, read and write combined
system.mem_ctrls.rank1.actEnergy         829588.032000                       # Energy for activate commands per rank (pJ)
system.mem_ctrls.rank1.preEnergy         1453530.355200                       # Energy for precharge commands per rank (pJ)
system.mem_ctrls.rank1.readEnergy        3450571.219200                       # Energy for read commands per rank (pJ)
system.mem_ctrls.rank1.writeEnergy       1198400.448000                       # Energy for write commands per rank (pJ)
system.mem_ctrls.rank1.refreshEnergy     1590288108.208720                       # Energy for refresh commands per rank (pJ)
system.mem_ctrls.rank1.actBackEnergy     1334218323.110427                       # Energy for active background per rank (pJ)
system.mem_ctrls.rank1.preBackEnergy     5060205731.750422                       # Energy for precharge background per rank (pJ)
system.mem_ctrls.rank1.actPowerDownEnergy            0                       # Energy for active power-down per rank (pJ)
system.mem_ctrls.rank1.prePowerDownEnergy            0                       # Energy for precharge power-down per rank (pJ)
system.mem_ctrls.rank1.selfRefreshEnergy            0                       # Energy for self refresh per rank (pJ)
system.mem_ctrls.rank1.totalEnergy       7991644253.124122                       # Total energy per rank (pJ)
system.mem_ctrls.rank1.averagePower        436.105337                       # Core power per rank (mW)
system.mem_ctrls.rank1.totalIdleTime                0                       # Total Idle time Per DRAM Rank
system.mem_ctrls.rank1.memoryStateTime::IDLE  15465476064                       # Time in different power states
system.mem_ctrls.rank1.memoryStateTime::REF    823550000                       # Time in different power states
system.mem_ctrls.rank1.memoryStateTime::SREF            0                       # Time in different power states
system.mem_ctrls.rank1.memoryStateTime::PRE_PDN            0                       # Time in different power states
system.mem_ctrls.rank1.memoryStateTime::ACT   2036005936                       # Time in different power states
system.mem_ctrls.rank1.memoryStateTime::ACT_PDN            0                       # Time in different power states
system.mem_ctrls.rank0.actEnergy         904438.080000                       # Energy for activate commands per rank (pJ)
system.mem_ctrls.rank0.preEnergy         1569152.088000                       # Energy for precharge commands per rank (pJ)
system.mem_ctrls.rank0.readEnergy        5362374.192000                       # Energy for read commands per rank (pJ)
system.mem_ctrls.rank0.writeEnergy       1547540.736000                       # Energy for write commands per rank (pJ)
system.mem_ctrls.rank0.refreshEnergy     1590288108.208720                       # Energy for refresh commands per rank (pJ)
system.mem_ctrls.rank0.actBackEnergy     1133419744.682387                       # Energy for active background per rank (pJ)
system.mem_ctrls.rank0.preBackEnergy     5198828100.614421                       # Energy for precharge background per rank (pJ)
system.mem_ctrls.rank0.actPowerDownEnergy            0                       # Energy for active power-down per rank (pJ)
system.mem_ctrls.rank0.prePowerDownEnergy            0                       # Energy for precharge power-down per rank (pJ)
system.mem_ctrls.rank0.selfRefreshEnergy            0                       # Energy for self refresh per rank (pJ)
system.mem_ctrls.rank0.totalEnergy       7931919458.601797                       # Total energy per rank (pJ)
[...]
system.cpu.icache.tags.occ_percent::total     0.460459                       # Average percentage of cache occupancy
system.cpu.icache.tags.occ_task_id_blocks::1024          290                       # Occupied blocks per task id
system.cpu.icache.tags.age_task_id_blocks_1024::0           42                       # Occupied blocks per task id
system.cpu.icache.tags.age_task_id_blocks_1024::2            2                       # Occupied blocks per task id
system.cpu.icache.tags.age_task_id_blocks_1024::3           95                       # Occupied blocks per task id
system.cpu.icache.tags.age_task_id_blocks_1024::4          151                       # Occupied blocks per task id
system.cpu.icache.tags.occ_task_id_percent::1024     0.566406                       # Percentage of cache occupancy per task id
system.cpu.icache.tags.tag_accesses          27806637                       # Number of tag accesses
system.cpu.icache.tags.data_accesses         27806637                       # Number of data accesses
system.cpu.dtb.walker.pwrStateResidencyTicks::UNDEFINED  18325032000                       # Cumulative time (in ticks) in various power states
system.cpu.dtb.stage2_mmu.stage2_tlb.walker.pwrStateResidencyTicks::UNDEFINED  18325032000                       # Cumulative time (in ticks) in various power states
system.cpu.itb.walker.pwrStateResidencyTicks::UNDEFINED  18325032000                       # Cumulative time (in ticks) in various power states
system.cpu.itb.stage2_mmu.stage2_tlb.walker.pwrStateResidencyTicks::UNDEFINED  18325032000                       # Cumulative time (in ticks) in various power states
system.cpu.dcache.pwrStateResidencyTicks::UNDEFINED  18325032000                       # Cumulative time (in ticks) in various power states
system.cpu.dcache.demand_hits::.cpu.data      4154696                       # number of demand (read+write) hits
system.cpu.dcache.demand_hits::total          4154696                       # number of demand (read+write) hits
system.cpu.dcache.overall_hits::.cpu.data      4160595                       # number of overall hits
system.cpu.dcache.overall_hits::total         4160595                       # number of overall hits
system.cpu.dcache.demand_misses::.cpu.data         2732                       # number of demand (read+write) misses
system.cpu.dcache.demand_misses::total           2732                       # number of demand (read+write) misses
system.cpu.dcache.overall_misses::.cpu.data         3056                       # number of overall misses
system.cpu.dcache.overall_misses::total          3056                       # number of overall misses
system.cpu.dcache.demand_miss_latency::.cpu.data    164502500                       # number of demand (read+write) miss cycles
system.cpu.dcache.demand_miss_latency::total    164502500                       # number of demand (read+write) miss cycles
system.cpu.dcache.overall_miss_latency::.cpu.data    164502500                       # number of overall miss cycles
system.cpu.dcache.overall_miss_latency::total    164502500                       # number of overall miss cycles
system.cpu.dcache.demand_accesses::.cpu.data      4157428                       # number of demand (read+write) accesses
system.cpu.dcache.demand_accesses::total      4157428                       # number of demand (read+write) accesses
system.cpu.dcache.overall_accesses::.cpu.data      4163651                       # number of overall (read+write) accesses
system.cpu.dcache.overall_accesses::total      4163651                       # number of overall (read+write) accesses
system.cpu.dcache.demand_miss_rate::.cpu.data     0.000657                       # miss rate for demand accesses
system.cpu.dcache.demand_miss_rate::total     0.000657                       # miss rate for demand accesses
system.cpu.dcache.overall_miss_rate::.cpu.data     0.000734                       # miss rate for overall accesses
system.cpu.dcache.overall_miss_rate::total     0.000734                       # miss rate for overall accesses
system.cpu.dcache.demand_avg_miss_latency::.cpu.data 60213.213763                       # average overall miss latency
system.cpu.dcache.demand_avg_miss_latency::total 60213.213763                       # average overall miss latency
system.cpu.dcache.overall_avg_miss_latency::.cpu.data 53829.352094                       # average overall miss latency
system.cpu.dcache.overall_avg_miss_latency::total 53829.352094                       # average overall miss latency
system.cpu.dcache.blocked_cycles::no_mshrs          877                       # number of cycles access was blocked
system.cpu.dcache.blocked_cycles::no_targets            0                       # number of cycles access was blocked
system.cpu.dcache.blocked::no_mshrs                45                       # number of cycles access was blocked
system.cpu.dcache.blocked::no_targets               0                       # number of cycles access was blocked
system.cpu.dcache.avg_blocked_cycles::no_mshrs    19.488889                       # average number of cycles each access was blocked
system.cpu.dcache.avg_blocked_cycles::no_targets          nan                       # average number of cycles each access was blocked
system.cpu.dcache.writebacks::.writebacks         1288                       # number of writebacks
system.cpu.dcache.writebacks::total              1288                       # number of writebacks
system.cpu.dcache.demand_mshr_hits::.cpu.data            3                       # number of demand (read+write) MSHR hits
system.cpu.dcache.demand_mshr_hits::total            3                       # number of demand (read+write) MSHR hits
system.cpu.dcache.overall_mshr_hits::.cpu.data            3                       # number of overall MSHR hits
system.cpu.dcache.overall_mshr_hits::total            3                       # number of overall MSHR hits
system.cpu.dcache.demand_mshr_misses::.cpu.data         2729                       # number of demand (read+write) MSHR misses
system.cpu.dcache.demand_mshr_misses::total         2729                       # number of demand (read+write) MSHR misses
system.cpu.dcache.overall_mshr_misses::.cpu.data         3050                       # number of overall MSHR misses
system.cpu.dcache.overall_mshr_misses::total         3050                       # number of overall MSHR misses
system.cpu.dcache.demand_mshr_miss_latency::.cpu.data    161610500                       # number of demand (read+write) MSHR miss cycles
system.cpu.dcache.demand_mshr_miss_latency::total    161610500                       # number of demand (read+write) MSHR miss cycles
system.cpu.dcache.overall_mshr_miss_latency::.cpu.data    180792000                       # number of overall MSHR miss cycles
system.cpu.dcache.overall_mshr_miss_latency::total    180792000                       # number of overall MSHR miss cycles
system.cpu.dcache.demand_mshr_miss_rate::.cpu.data     0.000656                       # mshr miss rate for demand accesses
system.cpu.dcache.demand_mshr_miss_rate::total     0.000656                       # mshr miss rate for demand accesses
system.cpu.dcache.overall_mshr_miss_rate::.cpu.data     0.000733                       # mshr miss rate for overall accesses
system.cpu.dcache.overall_mshr_miss_rate::total     0.000733                       # mshr miss rate for overall accesses
system.cpu.dcache.demand_avg_mshr_miss_latency::.cpu.data 59219.677538                       # average overall mshr miss latency
system.cpu.dcache.demand_avg_mshr_miss_latency::total 59219.677538                       # average overall mshr miss latency
system.cpu.dcache.overall_avg_mshr_miss_latency::.cpu.data 59276.065574                       # average overall mshr miss latency
system.cpu.dcache.overall_avg_mshr_miss_latency::total 59276.065574                       # average overall mshr miss latency
system.cpu.dcache.replacements                   2029                       # number of replacements
system.cpu.dcache.ReadReq_hits::.cpu.data      2344951                       # number of ReadReq hits
system.cpu.dcache.ReadReq_hits::total         2344951                       # number of ReadReq hits
system.cpu.dcache.ReadReq_misses::.cpu.data          918                       # number of ReadReq misses
system.cpu.dcache.ReadReq_misses::total           918                       # number of ReadReq misses
system.cpu.dcache.ReadReq_miss_latency::.cpu.data     56798500                       # number of ReadReq miss cycles
system.cpu.dcache.ReadReq_miss_latency::total     56798500                       # number of ReadReq miss cycles
system.cpu.dcache.ReadReq_accesses::.cpu.data      2345869                       # number of ReadReq accesses(hits+misses)
system.cpu.dcache.ReadReq_accesses::total      2345869                       # number of ReadReq accesses(hits+misses)
system.cpu.dcache.ReadReq_miss_rate::.cpu.data     0.000391                       # miss rate for ReadReq accesses
system.cpu.dcache.ReadReq_miss_rate::total     0.000391                       # miss rate for ReadReq accesses
system.cpu.dcache.ReadReq_avg_miss_latency::.cpu.data 61872.004357                       # average ReadReq miss latency
system.cpu.dcache.ReadReq_avg_miss_latency::total 61872.004357                       # average ReadReq miss latency
system.cpu.dcache.ReadReq_mshr_hits::.cpu.data            3                       # number of ReadReq MSHR hits
system.cpu.dcache.ReadReq_mshr_hits::total            3                       # number of ReadReq MSHR hits
system.cpu.dcache.ReadReq_mshr_misses::.cpu.data          915                       # number of ReadReq MSHR misses
system.cpu.dcache.ReadReq_mshr_misses::total          915                       # number of ReadReq MSHR misses
system.cpu.dcache.ReadReq_mshr_miss_latency::.cpu.data     55720500                       # number of ReadReq MSHR miss cycles
system.cpu.dcache.ReadReq_mshr_miss_latency::total     55720500                       # number of ReadReq MSHR miss cycles
system.cpu.dcache.ReadReq_mshr_miss_rate::.cpu.data     0.000390                       # mshr miss rate for ReadReq accesses
system.cpu.dcache.ReadReq_mshr_miss_rate::total     0.000390                       # mshr miss rate for ReadReq accesses
system.cpu.dcache.ReadReq_avg_mshr_miss_latency::.cpu.data 60896.721311                       # average ReadReq mshr miss latency
system.cpu.dcache.ReadReq_avg_mshr_miss_latency::total 60896.721311                       # average ReadReq mshr miss latency
system.cpu.dcache.WriteReq_hits::.cpu.data      1809745                       # number of WriteReq hits
system.cpu.dcache.WriteReq_hits::total        1809745                       # number of WriteReq hits
system.cpu.dcache.WriteReq_misses::.cpu.data         1814                       # number of WriteReq misses
system.cpu.dcache.WriteReq_misses::total         1814                       # number of WriteReq misses
system.cpu.dcache.WriteReq_miss_latency::.cpu.data    107704000                       # number of WriteReq miss cycles
system.cpu.dcache.WriteReq_miss_latency::total    107704000                       # number of WriteReq miss cycles
system.cpu.dcache.WriteReq_accesses::.cpu.data      1811559                       # number of WriteReq accesses(hits+misses)
system.cpu.dcache.WriteReq_accesses::total      1811559                       # number of WriteReq accesses(hits+misses)
system.cpu.dcache.WriteReq_miss_rate::.cpu.data     0.001001                       # miss rate for WriteReq accesses
system.cpu.dcache.WriteReq_miss_rate::total     0.001001                       # miss rate for WriteReq accesses
system.cpu.dcache.WriteReq_avg_miss_latency::.cpu.data 59373.759647                       # average WriteReq miss latency
system.cpu.dcache.WriteReq_avg_miss_latency::total 59373.759647                       # average WriteReq miss latency
system.cpu.dcache.WriteReq_mshr_misses::.cpu.data         1814                       # number of WriteReq MSHR misses
system.cpu.dcache.WriteReq_mshr_misses::total         1814                       # number of WriteReq MSHR misses
system.cpu.dcache.WriteReq_mshr_miss_latency::.cpu.data    105890000                       # number of WriteReq MSHR miss cycles
system.cpu.dcache.WriteReq_mshr_miss_latency::total    105890000                       # number of WriteReq MSHR miss cycles
system.cpu.dcache.WriteReq_mshr_miss_rate::.cpu.data     0.001001                       # mshr miss rate for WriteReq accesses
system.cpu.dcache.WriteReq_mshr_miss_rate::total     0.001001                       # mshr miss rate for WriteReq accesses
system.cpu.dcache.WriteReq_avg_mshr_miss_latency::.cpu.data 58373.759647                       # average WriteReq mshr miss latency
system.cpu.dcache.WriteReq_avg_mshr_miss_latency::total 58373.759647                       # average WriteReq mshr miss latency
system.cpu.dcache.SoftPFReq_hits::.cpu.data         5899                       # number of SoftPFReq hits
system.cpu.dcache.SoftPFReq_hits::total          5899                       # number of SoftPFReq hits
system.cpu.dcache.SoftPFReq_misses::.cpu.data          324                       # number of SoftPFReq misses
system.cpu.dcache.SoftPFReq_misses::total          324                       # number of SoftPFReq misses
system.cpu.dcache.SoftPFReq_accesses::.cpu.data         6223                       # number of SoftPFReq accesses(hits+misses)
system.cpu.dcache.SoftPFReq_accesses::total         6223                       # number of SoftPFReq accesses(hits+misses)
system.cpu.dcache.SoftPFReq_miss_rate::.cpu.data     0.052065                       # miss rate for SoftPFReq accesses
system.cpu.dcache.SoftPFReq_miss_rate::total     0.052065                       # miss rate for SoftPFReq accesses
system.cpu.dcache.SoftPFReq_mshr_misses::.cpu.data          321                       # number of SoftPFReq MSHR misses
system.cpu.dcache.SoftPFReq_mshr_misses::total          321                       # number of SoftPFReq MSHR misses
system.cpu.dcache.SoftPFReq_mshr_miss_latency::.cpu.data     19181500                       # number of SoftPFReq MSHR miss cycles
system.cpu.dcache.SoftPFReq_mshr_miss_latency::total     19181500                       # number of SoftPFReq MSHR miss cycles
system.cpu.dcache.SoftPFReq_mshr_miss_rate::.cpu.data     0.051583                       # mshr miss rate for SoftPFReq accesses
system.cpu.dcache.SoftPFReq_mshr_miss_rate::total     0.051583                       # mshr miss rate for SoftPFReq accesses
system.cpu.dcache.SoftPFReq_avg_mshr_miss_latency::.cpu.data 59755.451713                       # average SoftPFReq mshr miss latency
system.cpu.dcache.SoftPFReq_avg_mshr_miss_latency::total 59755.451713                       # average SoftPFReq mshr miss latency
system.cpu.dcache.LoadLockedReq_hits::.cpu.data        40019                       # number of LoadLockedReq hits
system.cpu.dcache.LoadLockedReq_hits::total        40019                       # number of LoadLockedReq hits
system.cpu.dcache.LoadLockedReq_misses::.cpu.data            3                       # number of LoadLockedReq misses
system.cpu.dcache.LoadLockedReq_misses::total            3                       # number of LoadLockedReq misses
system.cpu.dcache.LoadLockedReq_miss_latency::.cpu.data       164000                       # number of LoadLockedReq miss cycles
system.cpu.dcache.LoadLockedReq_miss_latency::total       164000                       # number of LoadLockedReq miss cycles
system.cpu.dcache.LoadLockedReq_accesses::.cpu.data        40022                       # number of LoadLockedReq accesses(hits+misses)
system.cpu.dcache.LoadLockedReq_accesses::total        40022                       # number of LoadLockedReq accesses(hits+misses)
system.cpu.dcache.LoadLockedReq_miss_rate::.cpu.data     0.000075                       # miss rate for LoadLockedReq accesses
system.cpu.dcache.LoadLockedReq_miss_rate::total     0.000075                       # miss rate for LoadLockedReq accesses
system.cpu.dcache.LoadLockedReq_avg_miss_latency::.cpu.data 54666.666667                       # average LoadLockedReq miss latency
system.cpu.dcache.LoadLockedReq_avg_miss_latency::total 54666.666667                       # average LoadLockedReq miss latency
system.cpu.dcache.LoadLockedReq_mshr_misses::.cpu.data            3                       # number of LoadLockedReq MSHR misses
system.cpu.dcache.LoadLockedReq_mshr_misses::total            3                       # number of LoadLockedReq MSHR misses
system.cpu.dcache.LoadLockedReq_mshr_miss_latency::.cpu.data       161000                       # number of LoadLockedReq MSHR miss cycles
system.cpu.dcache.LoadLockedReq_mshr_miss_latency::total       161000                       # number of LoadLockedReq MSHR miss cycles
system.cpu.dcache.LoadLockedReq_mshr_miss_rate::.cpu.data     0.000075                       # mshr miss rate for LoadLockedReq accesses
system.cpu.dcache.LoadLockedReq_mshr_miss_rate::total     0.000075                       # mshr miss rate for LoadLockedReq accesses
system.cpu.dcache.LoadLockedReq_avg_mshr_miss_latency::.cpu.data 53666.666667                       # average LoadLockedReq mshr miss latency
system.cpu.dcache.LoadLockedReq_avg_mshr_miss_latency::total 53666.666667                       # average LoadLockedReq mshr miss latency
system.cpu.dcache.StoreCondReq_hits::.cpu.data        40022                       # number of StoreCondReq hits
system.cpu.dcache.StoreCondReq_hits::total        40022                       # number of StoreCondReq hits
system.cpu.dcache.StoreCondReq_accesses::.cpu.data        40022                       # number of StoreCondReq accesses(hits+misses)
system.cpu.dcache.StoreCondReq_accesses::total        40022                       # number of StoreCondReq accesses(hits+misses)
system.cpu.dcache.tags.pwrStateResidencyTicks::UNDEFINED  18325032000                       # Cumulative time (in ticks) in various power states
system.cpu.dcache.tags.tagsinuse           921.498143                       # Cycle average of tags in use
system.cpu.dcache.tags.total_refs             4243689                       # Total number of references to valid blocks.
system.cpu.dcache.tags.sampled_refs              3053                       # Sample count of references to valid blocks.
system.cpu.dcache.tags.avg_refs           1390.006223                       # Average number of references to valid blocks.
system.cpu.dcache.tags.warmup_cycle            146000                       # Cycle when the warmup percentage was hit.
system.cpu.dcache.tags.occ_blocks::.cpu.data   921.498143                       # Average occupied blocks per requestor
system.cpu.dcache.tags.occ_percent::.cpu.data     0.899901                       # Average percentage of cache occupancy
system.cpu.dcache.tags.occ_percent::total     0.899901                       # Average percentage of cache occupancy
system.cpu.dcache.tags.occ_task_id_blocks::1024         1024                       # Occupied blocks per task id
system.cpu.dcache.tags.age_task_id_blocks_1024::0           18                       # Occupied blocks per task id
system.cpu.dcache.tags.age_task_id_blocks_1024::2            5                       # Occupied blocks per task id
system.cpu.dcache.tags.age_task_id_blocks_1024::3          494                       # Occupied blocks per task id
system.cpu.dcache.tags.age_task_id_blocks_1024::4          507                       # Occupied blocks per task id
system.cpu.dcache.tags.occ_task_id_percent::1024            1                       # Percentage of cache occupancy per task id
system.cpu.dcache.tags.tag_accesses           8490443                       # Number of tag accesses
system.cpu.dcache.tags.data_accesses          8490443                       # Number of data accesses

---------- End Simulation Statistics   ----------
