
---------- Begin Simulation Statistics ----------
final_tick                                82446772000                       # Number of ticks from beginning of simulation (restored from checkpoints and never reset)
host_inst_rate                                 452176                       # Simulator instruction rate (inst/s)
host_mem_usage                                 681244                       # Number of bytes of host memory used
host_op_rate                                   453064                       # Simulator op (including micro ops) rate (op/s)
host_seconds                                   221.15                       # Real time elapsed on the host
host_tick_rate                              372804737                       # Simulator tick rate (ticks/s)
sim_freq                                 1000000000000                       # Frequency of simulated ticks
sim_insts                                   100000001                       # Number of instructions simulated
sim_ops                                     100196363                       # Number of ops (including micro ops) simulated
sim_seconds                                  0.082447                       # Number of seconds simulated
sim_ticks                                 82446772000                       # Number of ticks simulated
system.cpu.branchPred.BTBCorrect                    0                       # Number of correct BTB predictions (this stat may not work properly.
system.cpu.branchPred.BTBHitPct             99.615229                       # BTB Hit Percentage
system.cpu.branchPred.BTBHits                 2096271                       # Number of BTB hits
system.cpu.branchPred.BTBLookups              2104368                       # Number of BTB lookups
system.cpu.branchPred.RASInCorrect                  5                       # Number of incorrect RAS predictions.
system.cpu.branchPred.condIncorrect             81379                       # Number of conditional branches incorrect
system.cpu.branchPred.condPredicted           3728787                       # Number of conditional branches predicted
system.cpu.branchPred.indirectHits                301                       # Number of indirect target hits.
system.cpu.branchPred.indirectLookups            1022                       # Number of indirect predictor lookups.
system.cpu.branchPred.indirectMisses              721                       # Number of indirect misses.
system.cpu.branchPred.lookups                 4479211                       # Number of BP lookups
system.cpu.branchPred.usedRAS                   65361                       # Number of times the RAS was used to get a target.
system.cpu.branchPredindirectMispredicted          163                       # Number of mispredicted indirect branches.
system.cpu.committedInsts                   100000001                       # Number of instructions committed
system.cpu.committedOps                     100196363                       # Number of ops (including micro ops) committed
system.cpu.cpi                               1.648935                       # CPI: cycles per instruction
system.cpu.discardedOps                        190821                       # Number of ops (including micro ops) which were discarded before commit
system.cpu.dtb.accesses                             0                       # DTB accesses
system.cpu.dtb.align_faults                         0                       # Number of TLB faults due to alignment restrictions
system.cpu.dtb.domain_faults                        0                       # Number of TLB faults due to domain restrictions
system.cpu.dtb.flush_entries                        0                       # Number of entries that have been flushed from TLB
system.cpu.dtb.flush_tlb                            0                       # Number of times complete TLB was flushed
system.cpu.dtb.flush_tlb_asid                       0                       # Number of times TLB was flushed by ASID
system.cpu.dtb.flush_tlb_mva                        0                       # Number of times TLB was flushed by MVA
system.cpu.dtb.flush_tlb_mva_asid                   0                       # Number of times TLB was flushed by MVA & ASID
system.cpu.dtb.hits                                 0                       # DTB hits
system.cpu.dtb.inst_accesses                        0                       # ITB inst accesses
system.cpu.dtb.inst_hits                            0                       # ITB inst hits
system.cpu.dtb.inst_misses                          0                       # ITB inst misses
system.cpu.dtb.misses                               0                       # DTB misses
system.cpu.dtb.perms_faults                         0                       # Number of TLB faults due to permissions restrictions
system.cpu.dtb.prefetch_faults                      0                       # Number of TLB faults due to prefetch
system.cpu.dtb.read_accesses                        0                       # DTB read accesses
system.cpu.dtb.read_hits                            0                       # DTB read hits
system.cpu.dtb.read_misses                          0                       # DTB read misses
system.cpu.dtb.stage2_mmu.stage2_tlb.accesses            0                       # DTB accesses
system.cpu.dtb.stage2_mmu.stage2_tlb.align_faults            0                       # Number of TLB faults due to alignment restrictions
system.cpu.dtb.stage2_mmu.stage2_tlb.domain_faults            0                       # Number of TLB faults due to domain restrictions
system.cpu.dtb.stage2_mmu.stage2_tlb.flush_entries            0                       # Number of entries that have been flushed from TLB
system.cpu.dtb.stage2_mmu.stage2_tlb.flush_tlb            0                       # Number of times complete TLB was flushed
system.cpu.dtb.stage2_mmu.stage2_tlb.flush_tlb_asid            0                       # Number of times TLB was flushed by ASID
system.cpu.dtb.stage2_mmu.stage2_tlb.flush_tlb_mva            0                       # Number of times TLB was flushed by MVA
system.cpu.dtb.stage2_mmu.stage2_tlb.flush_tlb_mva_asid            0                       # Number of times TLB was flushed by MVA & ASID
system.cpu.dtb.stage2_mmu.stage2_tlb.hits            0                       # DTB hits
system.cpu.dtb.stage2_mmu.stage2_tlb.inst_accesses            0                       # ITB inst accesses
system.cpu.dtb.stage2_mmu.stage2_tlb.inst_hits            0                       # ITB inst hits
system.cpu.dtb.stage2_mmu.stage2_tlb.inst_misses            0                       # ITB inst misses
system.cpu.dtb.stage2_mmu.stage2_tlb.misses            0                       # DTB misses
system.cpu.dtb.stage2_mmu.stage2_tlb.perms_faults            0                       # Number of TLB faults due to permissions restrictions
system.cpu.dtb.stage2_mmu.stage2_tlb.prefetch_faults            0                       # Number of TLB faults due to prefetch
system.cpu.dtb.stage2_mmu.stage2_tlb.read_accesses            0                       # DTB read accesses
system.cpu.dtb.stage2_mmu.stage2_tlb.read_hits            0                       # DTB read hits
system.cpu.dtb.stage2_mmu.stage2_tlb.read_misses            0                       # DTB read misses
system.cpu.dtb.stage2_mmu.stage2_tlb.walker.walkRequestOrigin_Requested::Data            0                       # Table walker requests started/completed, data/inst
system.cpu.dtb.stage2_mmu.stage2_tlb.walker.walkRequestOrigin_Requested::Inst            0                       # Table walker requests started/completed, data/inst
system.cpu.dtb.stage2_mmu.stage2_tlb.walker.walkRequestOrigin_Requested::total            0                       # Table walker requests started/completed, data/inst
system.cpu.dtb.stage2_mmu.stage2_tlb.walker.walkRequestOrigin_Completed::Data            0                       # Table walker requests started/completed, data/inst
system.cpu.dtb.stage2_mmu.stage2_tlb.walker.walkRequestOrigin_Completed::Inst            0                       # Table walker requests started/completed, data/inst
system.cpu.dtb.stage2_mmu.stage2_tlb.walker.walkRequestOrigin_Completed::total            0                       # Table walker requests started/completed, data/inst
system.cpu.dtb.stage2_mmu.stage2_tlb.walker.walkRequestOrigin::total            0                       # Table walker requests started/completed, data/inst
system.cpu.dtb.stage2_mmu.stage2_tlb.walker.walks            0                       # Table walker walks requested
system.cpu.dtb.stage2_mmu.stage2_tlb.write_accesses            0                       # DTB write accesses
system.cpu.dtb.stage2_mmu.stage2_tlb.write_hits            0                       # DTB write hits
system.cpu.dtb.stage2_mmu.stage2_tlb.write_misses            0                       # DTB write misses
system.cpu.dtb.walker.walkRequestOrigin_Requested::Data            0                       # Table walker requests started/completed, data/inst
system.cpu.dtb.walker.walkRequestOrigin_Requested::Inst            0                       # Table walker requests started/completed, data/inst
system.cpu.dtb.walker.walkRequestOrigin_Requested::total            0                       # Table walker requests started/completed, data/inst
system.cpu.dtb.walker.walkRequestOrigin_Completed::Data            0                       # Table walker requests started/completed, data/inst
system.cpu.dtb.walker.walkRequestOrigin_Completed::Inst            0                       # Table walker requests started/completed, data/inst
system.cpu.dtb.walker.walkRequestOrigin_Completed::total            0                       # Table walker requests started/completed, data/inst
system.cpu.dtb.walker.walkRequestOrigin::total            0                       # Table walker requests started/completed, data/inst
system.cpu.dtb.walker.walks                         0                       # Table walker walks requested
system.cpu.dtb.write_accesses                       0                       # DTB write accesses
system.cpu.dtb.write_hits                           0                       # DTB write hits
system.cpu.dtb.write_misses                         0                       # DTB write misses
system.cpu.fetch2.amo_instructions                  0                       # Number of memory atomic instructions successfully decoded
system.cpu.fetch2.fp_instructions                   0                       # Number of floating point instructions successfully decoded
system.cpu.fetch2.int_instructions           42615308                       # Number of integer instructions successfully decoded
system.cpu.fetch2.load_instructions          43408386                       # Number of memory load instructions successfully decoded
system.cpu.fetch2.store_instructions         11002296                       # Number of memory store instructions successfully decoded
system.cpu.fetch2.vec_instructions                  0                       # Number of SIMD instructions successfully decoded
system.cpu.idleCycles                        32415120                       # Total number of cycles that the object has spent stopped
system.cpu.ipc                               0.606452                       # IPC: instructions per cycle
system.cpu.itb.accesses                             0                       # DTB accesses
system.cpu.itb.align_faults                         0                       # Number of TLB faults due to alignment restrictions
system.cpu.itb.domain_faults                        0                       # Number of TLB faults due to domain restrictions
system.cpu.itb.flush_entries                        0                       # Number of entries that have been flushed from TLB
system.cpu.itb.flush_tlb                            0                       # Number of times complete TLB was flushed
system.cpu.itb.flush_tlb_asid                       0                       # Number of times TLB was flushed by ASID
system.cpu.itb.flush_tlb_mva                        0                       # Number of times TLB was flushed by MVA
system.cpu.itb.flush_tlb_mva_asid                   0                       # Number of times TLB was flushed by MVA & ASID
system.cpu.itb.hits                                 0                       # DTB hits
system.cpu.itb.inst_accesses                        0                       # ITB inst accesses
system.cpu.itb.inst_hits                            0                       # ITB inst hits
system.cpu.itb.inst_misses                          0                       # ITB inst misses
system.cpu.itb.misses                               0                       # DTB misses
system.cpu.itb.perms_faults                         0                       # Number of TLB faults due to permissions restrictions
system.cpu.itb.prefetch_faults                      0                       # Number of TLB faults due to prefetch
system.cpu.itb.read_accesses                        0                       # DTB read accesses
system.cpu.itb.read_hits                            0                       # DTB read hits
system.cpu.itb.read_misses                          0                       # DTB read misses
system.cpu.itb.stage2_mmu.stage2_tlb.accesses            0                       # DTB accesses
system.cpu.itb.stage2_mmu.stage2_tlb.align_faults            0                       # Number of TLB faults due to alignment restrictions
system.cpu.itb.stage2_mmu.stage2_tlb.domain_faults            0                       # Number of TLB faults due to domain restrictions
system.cpu.itb.stage2_mmu.stage2_tlb.flush_entries            0                       # Number of entries that have been flushed from TLB
system.cpu.itb.stage2_mmu.stage2_tlb.flush_tlb            0                       # Number of times complete TLB was flushed
system.cpu.itb.stage2_mmu.stage2_tlb.flush_tlb_asid            0                       # Number of times TLB was flushed by ASID
system.cpu.itb.stage2_mmu.stage2_tlb.flush_tlb_mva            0                       # Number of times TLB was flushed by MVA
system.cpu.itb.stage2_mmu.stage2_tlb.flush_tlb_mva_asid            0                       # Number of times TLB was flushed by MVA & ASID
system.cpu.itb.stage2_mmu.stage2_tlb.hits            0                       # DTB hits
system.cpu.itb.stage2_mmu.stage2_tlb.inst_accesses            0                       # ITB inst accesses
system.cpu.itb.stage2_mmu.stage2_tlb.inst_hits            0                       # ITB inst hits
system.cpu.itb.stage2_mmu.stage2_tlb.inst_misses            0                       # ITB inst misses
system.cpu.itb.stage2_mmu.stage2_tlb.misses            0                       # DTB misses
system.cpu.itb.stage2_mmu.stage2_tlb.perms_faults            0                       # Number of TLB faults due to permissions restrictions
system.cpu.itb.stage2_mmu.stage2_tlb.prefetch_faults            0                       # Number of TLB faults due to prefetch
system.cpu.itb.stage2_mmu.stage2_tlb.read_accesses            0                       # DTB read accesses
system.cpu.itb.stage2_mmu.stage2_tlb.read_hits            0                       # DTB read hits
system.cpu.itb.stage2_mmu.stage2_tlb.read_misses            0                       # DTB read misses
system.cpu.itb.stage2_mmu.stage2_tlb.walker.walkRequestOrigin_Requested::Data            0                       # Table walker requests started/completed, data/inst
system.cpu.itb.stage2_mmu.stage2_tlb.walker.walkRequestOrigin_Requested::Inst            0                       # Table walker requests started/completed, data/inst
system.cpu.itb.stage2_mmu.stage2_tlb.walker.walkRequestOrigin_Requested::total            0                       # Table walker requests started/completed, data/inst
system.cpu.itb.stage2_mmu.stage2_tlb.walker.walkRequestOrigin_Completed::Data            0                       # Table walker requests started/completed, data/inst
system.cpu.itb.stage2_mmu.stage2_tlb.walker.walkRequestOrigin_Completed::Inst            0                       # Table walker requests started/completed, data/inst
system.cpu.itb.stage2_mmu.stage2_tlb.walker.walkRequestOrigin_Completed::total            0                       # Table walker requests started/completed, data/inst
system.cpu.itb.stage2_mmu.stage2_tlb.walker.walkRequestOrigin::total            0                       # Table walker requests started/completed, data/inst
system.cpu.itb.stage2_mmu.stage2_tlb.walker.walks            0                       # Table walker walks requested
system.cpu.itb.stage2_mmu.stage2_tlb.write_accesses            0                       # DTB write accesses
system.cpu.itb.stage2_mmu.stage2_tlb.write_hits            0                       # DTB write hits
system.cpu.itb.stage2_mmu.stage2_tlb.write_misses            0                       # DTB write misses
system.cpu.itb.walker.walkRequestOrigin_Requested::Data            0                       # Table walker requests started/completed, data/inst
system.cpu.itb.walker.walkRequestOrigin_Requested::Inst            0                       # Table walker requests started/completed, data/inst
system.cpu.itb.walker.walkRequestOrigin_Requested::total            0                       # Table walker requests started/completed, data/inst
system.cpu.itb.walker.walkRequestOrigin_Completed::Data            0                       # Table walker requests started/completed, data/inst
system.cpu.itb.walker.walkRequestOrigin_Completed::Inst            0                       # Table walker requests started/completed, data/inst
system.cpu.itb.walker.walkRequestOrigin_Completed::total            0                       # Table walker requests started/completed, data/inst
system.cpu.itb.walker.walkRequestOrigin::total            0                       # Table walker requests started/completed, data/inst
system.cpu.itb.walker.walks                         0                       # Table walker walks requested
system.cpu.itb.write_accesses                       0                       # DTB write accesses
system.cpu.itb.write_hits                           0                       # DTB write hits
system.cpu.itb.write_misses                         0                       # DTB write misses
system.cpu.numCycles                        164893544                       # number of cpu cycles simulated
system.cpu.numFetchSuspends                         0                       # Number of times Execute suspended instruction fetching
system.cpu.numWorkItemsCompleted                    0                       # number of work items this cpu completed
system.cpu.numWorkItemsStarted                      0                       # number of work items this cpu started
system.cpu.op_class_0::No_OpClass                   0      0.00%      0.00% # Class of committed instruction
system.cpu.op_class_0::IntAlu                46531400     46.44%     46.44% # Class of committed instruction
system.cpu.op_class_0::IntMult                  20720      0.02%     46.46% # Class of committed instruction
system.cpu.op_class_0::IntDiv                       0      0.00%     46.46% # Class of committed instruction
system.cpu.op_class_0::FloatAdd                     0      0.00%     46.46% # Class of committed instruction
system.cpu.op_class_0::FloatCmp                     0      0.00%     46.46% # Class of committed instruction
system.cpu.op_class_0::FloatCvt                     0      0.00%     46.46% # Class of committed instruction
system.cpu.op_class_0::FloatMult                    0      0.00%     46.46% # Class of committed instruction
system.cpu.op_class_0::FloatMultAcc                 0      0.00%     46.46% # Class of committed instruction
system.cpu.op_class_0::FloatDiv                     0      0.00%     46.46% # Class of committed instruction
system.cpu.op_class_0::FloatMisc                    0      0.00%     46.46% # Class of committed instruction
system.cpu.op_class_0::FloatSqrt                    0      0.00%     46.46% # Class of committed instruction
system.cpu.op_class_0::SimdAdd                      0      0.00%     46.46% # Class of committed instruction
system.cpu.op_class_0::SimdAddAcc                   0      0.00%     46.46% # Class of committed instruction
system.cpu.op_class_0::SimdAlu                      0      0.00%     46.46% # Class of committed instruction
system.cpu.op_class_0::SimdCmp                      0      0.00%     46.46% # Class of committed instruction
system.cpu.op_class_0::SimdCvt                      0      0.00%     46.46% # Class of committed instruction
system.cpu.op_class_0::SimdMisc                     0      0.00%     46.46% # Class of committed instruction
system.cpu.op_class_0::SimdMult                     0      0.00%     46.46% # Class of committed instruction
system.cpu.op_class_0::SimdMultAcc                  0      0.00%     46.46% # Class of committed instruction
system.cpu.op_class_0::SimdShift                    0      0.00%     46.46% # Class of committed instruction
system.cpu.op_class_0::SimdShiftAcc                 0      0.00%     46.46% # Class of committed instruction
system.cpu.op_class_0::SimdDiv                      0      0.00%     46.46% # Class of committed instruction
system.cpu.op_class_0::SimdSqrt                     0      0.00%     46.46% # Class of committed instruction
system.cpu.op_class_0::SimdFloatAdd                 0      0.00%     46.46% # Class of committed instruction
system.cpu.op_class_0::SimdFloatAlu                 0      0.00%     46.46% # Class of committed instruction
system.cpu.op_class_0::SimdFloatCmp                 0      0.00%     46.46% # Class of committed instruction
system.cpu.op_class_0::SimdFloatCvt                 0      0.00%     46.46% # Class of committed instruction
system.cpu.op_class_0::SimdFloatDiv                 0      0.00%     46.46% # Class of committed instruction
system.cpu.op_class_0::SimdFloatMisc               18      0.00%     46.46% # Class of committed instruction
system.cpu.op_class_0::SimdFloatMult                0      0.00%     46.46% # Class of committed instruction
system.cpu.op_class_0::SimdFloatMultAcc             0      0.00%     46.46% # Class of committed instruction
system.cpu.op_class_0::SimdFloatSqrt                0      0.00%     46.46% # Class of committed instruction
system.cpu.op_class_0::SimdReduceAdd                0      0.00%     46.46% # Class of committed instruction
system.cpu.op_class_0::SimdReduceAlu                0      0.00%     46.46% # Class of committed instruction
system.cpu.op_class_0::SimdReduceCmp                0      0.00%     46.46% # Class of committed instruction
system.cpu.op_class_0::SimdFloatReduceAdd            0      0.00%     46.46% # Class of committed instruction
system.cpu.op_class_0::SimdFloatReduceCmp            0      0.00%     46.46% # Class of committed instruction
system.cpu.op_class_0::SimdAes                      0      0.00%     46.46% # Class of committed instruction
system.cpu.op_class_0::SimdAesMix                   0      0.00%     46.46% # Class of committed instruction
system.cpu.op_class_0::SimdSha1Hash                 0      0.00%     46.46% # Class of committed instruction
system.cpu.op_class_0::SimdSha1Hash2                0      0.00%     46.46% # Class of committed instruction
system.cpu.op_class_0::SimdSha256Hash               0      0.00%     46.46% # Class of committed instruction
system.cpu.op_class_0::SimdSha256Hash2              0      0.00%     46.46% # Class of committed instruction
system.cpu.op_class_0::SimdShaSigma2                0      0.00%     46.46% # Class of committed instruction
system.cpu.op_class_0::SimdShaSigma3                0      0.00%     46.46% # Class of committed instruction
system.cpu.op_class_0::SimdPredAlu                  0      0.00%     46.46% # Class of committed instruction
system.cpu.op_class_0::MemRead               42693601     42.61%     89.07% # Class of committed instruction
system.cpu.op_class_0::MemWrite              10950624     10.93%    100.00% # Class of committed instruction
system.cpu.op_class_0::FloatMemRead                 0      0.00%    100.00% # Class of committed instruction
system.cpu.op_class_0::FloatMemWrite                0      0.00%    100.00% # Class of committed instruction
system.cpu.op_class_0::IprAccess                    0      0.00%    100.00% # Class of committed instruction
system.cpu.op_class_0::InstPrefetch                 0      0.00%    100.00% # Class of committed instruction
system.cpu.op_class_0::total                100196363                       # Class of committed instruction
system.cpu.tickCycles                       132478424                       # Number of cycles that the object actually ticked
system.cpu.workload.numSyscalls                    84                       # Number of system calls
system.membus.snoop_filter.hit_multi_requests            0                       # Number of requests hitting in the snoop filter with multiple (>1) holders of the requested data.
system.membus.snoop_filter.hit_multi_snoops            0                       # Number of snoops hitting in the snoop filter with multiple (>1) holders of the requested data.
system.membus.snoop_filter.hit_single_requests        57712                       # Number of requests hitting in the snoop filter with a single holder of the requested data.
system.membus.snoop_filter.hit_single_snoops            0                       # Number of snoops hitting in the snoop filter with a single holder of the requested data.
system.membus.snoop_filter.tot_requests        132032                       # Total number of requests made to the snoop filter.
system.membus.snoop_filter.tot_snoops               0                       # Total number of snoops made to the snoop filter.
system.tol2bus.snoop_filter.hit_multi_requests          290                       # Number of requests hitting in the snoop filter with multiple (>1) holders of the requested data.
system.tol2bus.snoop_filter.hit_multi_snoops            1                       # Number of snoops hitting in the snoop filter with multiple (>1) holders of the requested data.
system.tol2bus.snoop_filter.hit_single_requests       769213                       # Number of requests hitting in the snoop filter with a single holder of the requested data.
system.tol2bus.snoop_filter.hit_single_snoops          247                       # Number of snoops hitting in the snoop filter with a single holder of the requested data.
system.tol2bus.snoop_filter.tot_requests      1538953                       # Total number of requests made to the snoop filter.
system.tol2bus.snoop_filter.tot_snoops            248                       # Total number of snoops made to the snoop filter.
system.membus.pwrStateResidencyTicks::UNDEFINED  82446772000                       # Cumulative time (in ticks) in various power states
system.membus.trans_dist::ReadResp              19346                       # Transaction distribution
system.membus.trans_dist::WritebackDirty        40223                       # Transaction distribution
system.membus.trans_dist::CleanEvict            17480                       # Transaction distribution
system.membus.trans_dist::ReadExReq             54983                       # Transaction distribution
system.membus.trans_dist::ReadExResp            54983                       # Transaction distribution
system.membus.trans_dist::ReadSharedReq         19346                       # Transaction distribution
system.membus.pkt_count_system.l2.mem_side::system.mem_ctrls.port       206361                       # Packet count per connected master and slave (bytes)
system.membus.pkt_count::total                 206361                       # Packet count per connected master and slave (bytes)
system.membus.pkt_size_system.l2.mem_side::system.mem_ctrls.port     29325312                       # Cumulative packet size per connected master and slave (bytes)
system.membus.pkt_size::total                29325312                       # Cumulative packet size per connected master and slave (bytes)
system.membus.snoops                                0                       # Total snoops (count)
system.membus.snoopTraffic                          0                       # Total snoop traffic (bytes)
system.membus.snoop_fanout::samples             74329                       # Request fanout histogram
system.membus.snoop_fanout::mean                    0                       # Request fanout histogram
system.membus.snoop_fanout::stdev                   0                       # Request fanout histogram
system.membus.snoop_fanout::underflows              0      0.00%      0.00% # Request fanout histogram
system.membus.snoop_fanout::0                   74329    100.00%    100.00% # Request fanout histogram
system.membus.snoop_fanout::1                       0      0.00%    100.00% # Request fanout histogram
system.membus.snoop_fanout::overflows               0      0.00%    100.00% # Request fanout histogram
system.membus.snoop_fanout::min_value               0                       # Request fanout histogram
system.membus.snoop_fanout::max_value               0                       # Request fanout histogram
system.membus.snoop_fanout::total               74329                       # Request fanout histogram
system.membus.respLayer1.occupancy         1292265000                       # Layer occupancy (ticks)
system.membus.respLayer1.utilization              1.6                       # Layer utilization (%)
system.membus.reqLayer0.occupancy           797434000                       # Layer occupancy (ticks)
system.membus.reqLayer0.utilization               1.0                       # Layer utilization (%)
system.tol2bus.pwrStateResidencyTicks::UNDEFINED  82446772000                       # Cumulative time (in ticks) in various power states
system.tol2bus.trans_dist::ReadResp            443151                       # Transaction distribution
system.tol2bus.trans_dist::WritebackDirty       787560                       # Transaction distribution
system.tol2bus.trans_dist::WritebackClean            5                       # Transaction distribution
system.tol2bus.trans_dist::CleanEvict           39599                       # Transaction distribution
system.tol2bus.trans_dist::ReadExReq           326589                       # Transaction distribution
system.tol2bus.trans_dist::ReadExResp          326588                       # Transaction distribution
system.tol2bus.trans_dist::ReadCleanReq           275                       # Transaction distribution
system.tol2bus.trans_dist::ReadSharedReq       442876                       # Transaction distribution
system.tol2bus.pkt_count_system.cpu.icache.mem_side::system.l2.cpu_side          555                       # Packet count per connected master and slave (bytes)
system.tol2bus.pkt_count_system.cpu.dcache.mem_side::system.l2.cpu_side      2308137                       # Packet count per connected master and slave (bytes)
system.tol2bus.pkt_count::total               2308692                       # Packet count per connected master and slave (bytes)
system.tol2bus.pkt_size_system.cpu.icache.mem_side::system.l2.cpu_side        71680                       # Cumulative packet size per connected master and slave (bytes)
system.tol2bus.pkt_size_system.cpu.dcache.mem_side::system.l2.cpu_side    388301056                       # Cumulative packet size per connected master and slave (bytes)
system.tol2bus.pkt_size::total              388372736                       # Cumulative packet size per connected master and slave (bytes)
system.tol2bus.snoops                           57951                       # Total snoops (count)
system.tol2bus.snoopTraffic                  10297088                       # Total snoop traffic (bytes)
system.tol2bus.snoop_fanout::samples           827691                       # Request fanout histogram
system.tol2bus.snoop_fanout::mean            0.000651                       # Request fanout histogram
system.tol2bus.snoop_fanout::stdev           0.025558                       # Request fanout histogram
system.tol2bus.snoop_fanout::underflows             0      0.00%      0.00% # Request fanout histogram
system.tol2bus.snoop_fanout::0                 827153     99.93%     99.93% # Request fanout histogram
system.tol2bus.snoop_fanout::1                    537      0.06%    100.00% # Request fanout histogram
system.tol2bus.snoop_fanout::2                      1      0.00%    100.00% # Request fanout histogram
system.tol2bus.snoop_fanout::overflows              0      0.00%    100.00% # Request fanout histogram
system.tol2bus.snoop_fanout::min_value              0                       # Request fanout histogram
system.tol2bus.snoop_fanout::max_value              2                       # Request fanout histogram
system.tol2bus.snoop_fanout::total             827691                       # Request fanout histogram
system.tol2bus.reqLayer0.occupancy         3758844500                       # Layer occupancy (ticks)
system.tol2bus.reqLayer0.utilization              4.6                       # Layer utilization (%)
system.tol2bus.respLayer1.occupancy        3462590495                       # Layer occupancy (ticks)
system.tol2bus.respLayer1.utilization             4.2                       # Layer utilization (%)
system.tol2bus.respLayer0.occupancy           1237500                       # Layer occupancy (ticks)
system.tol2bus.respLayer0.utilization             0.0                       # Layer utilization (%)
system.voltage_domain.voltage                       1                       # Voltage in Volts
system.clk_domain.clock                          1000                       # Clock period in ticks
system.l2.pwrStateResidencyTicks::UNDEFINED  82446772000                       # Cumulative time (in ticks) in various power states
system.l2.demand_hits::.cpu.inst                   11                       # number of demand (read+write) hits
system.l2.demand_hits::.cpu.data               695395                       # number of demand (read+write) hits
system.l2.demand_hits::total                   695406                       # number of demand (read+write) hits
system.l2.overall_hits::.cpu.inst                  11                       # number of overall hits
system.l2.overall_hits::.cpu.data              695395                       # number of overall hits
system.l2.overall_hits::total                  695406                       # number of overall hits
system.l2.demand_misses::.cpu.inst                264                       # number of demand (read+write) misses
system.l2.demand_misses::.cpu.data              74070                       # number of demand (read+write) misses
system.l2.demand_misses::total                  74334                       # number of demand (read+write) misses
system.l2.overall_misses::.cpu.inst               264                       # number of overall misses
system.l2.overall_misses::.cpu.data             74070                       # number of overall misses
system.l2.overall_misses::total                 74334                       # number of overall misses
system.l2.demand_miss_latency::.cpu.inst     25707500                       # number of demand (read+write) miss cycles
system.l2.demand_miss_latency::.cpu.data   8804221000                       # number of demand (read+write) miss cycles
system.l2.demand_miss_latency::total       8829928500                       # number of demand (read+write) miss cycles
system.l2.overall_miss_latency::.cpu.inst     25707500                       # number of overall miss cycles
system.l2.overall_miss_latency::.cpu.data   8804221000                       # number of overall miss cycles
system.l2.overall_miss_latency::total      8829928500                       # number of overall miss cycles
system.l2.demand_accesses::.cpu.inst              275                       # number of demand (read+write) accesses
system.l2.demand_accesses::.cpu.data           769465                       # number of demand (read+write) accesses
system.l2.demand_accesses::total               769740                       # number of demand (read+write) accesses
system.l2.overall_accesses::.cpu.inst             275                       # number of overall (read+write) accesses
system.l2.overall_accesses::.cpu.data          769465                       # number of overall (read+write) accesses
system.l2.overall_accesses::total              769740                       # number of overall (read+write) accesses
system.l2.demand_miss_rate::.cpu.inst        0.960000                       # miss rate for demand accesses
system.l2.demand_miss_rate::.cpu.data        0.096262                       # miss rate for demand accesses
system.l2.demand_miss_rate::total            0.096570                       # miss rate for demand accesses
system.l2.overall_miss_rate::.cpu.inst       0.960000                       # miss rate for overall accesses
system.l2.overall_miss_rate::.cpu.data       0.096262                       # miss rate for overall accesses
system.l2.overall_miss_rate::total           0.096570                       # miss rate for overall accesses
system.l2.demand_avg_miss_latency::.cpu.inst 97376.893939                       # average overall miss latency
system.l2.demand_avg_miss_latency::.cpu.data 118863.520994                       # average overall miss latency
system.l2.demand_avg_miss_latency::total 118787.210429                       # average overall miss latency
system.l2.overall_avg_miss_latency::.cpu.inst 97376.893939                       # average overall miss latency
system.l2.overall_avg_miss_latency::.cpu.data 118863.520994                       # average overall miss latency
system.l2.overall_avg_miss_latency::total 118787.210429                       # average overall miss latency
system.l2.blocked_cycles::no_mshrs                  0                       # number of cycles access was blocked
system.l2.blocked_cycles::no_targets                0                       # number of cycles access was blocked
system.l2.blocked::no_mshrs                         0                       # number of cycles access was blocked
system.l2.blocked::no_targets                       0                       # number of cycles access was blocked
system.l2.avg_blocked_cycles::no_mshrs            nan                       # average number of cycles each access was blocked
system.l2.avg_blocked_cycles::no_targets          nan                       # average number of cycles each access was blocked
system.l2.writebacks::.writebacks               40223                       # number of writebacks
system.l2.writebacks::total                     40223                       # number of writebacks
system.l2.demand_mshr_hits::.cpu.data               5                       # number of demand (read+write) MSHR hits
system.l2.demand_mshr_hits::total                   5                       # number of demand (read+write) MSHR hits
system.l2.overall_mshr_hits::.cpu.data              5                       # number of overall MSHR hits
system.l2.overall_mshr_hits::total                  5                       # number of overall MSHR hits
system.l2.demand_mshr_misses::.cpu.inst           264                       # number of demand (read+write) MSHR misses
system.l2.demand_mshr_misses::.cpu.data         74065                       # number of demand (read+write) MSHR misses
system.l2.demand_mshr_misses::total             74329                       # number of demand (read+write) MSHR misses
system.l2.overall_mshr_misses::.cpu.inst          264                       # number of overall MSHR misses
system.l2.overall_mshr_misses::.cpu.data        74065                       # number of overall MSHR misses
system.l2.overall_mshr_misses::total            74329                       # number of overall MSHR misses
system.l2.demand_mshr_miss_latency::.cpu.inst     23067500                       # number of demand (read+write) MSHR miss cycles
system.l2.demand_mshr_miss_latency::.cpu.data   8063135000                       # number of demand (read+write) MSHR miss cycles
system.l2.demand_mshr_miss_latency::total   8086202500                       # number of demand (read+write) MSHR miss cycles
system.l2.overall_mshr_miss_latency::.cpu.inst     23067500                       # number of overall MSHR miss cycles
system.l2.overall_mshr_miss_latency::.cpu.data   8063135000                       # number of overall MSHR miss cycles
system.l2.overall_mshr_miss_latency::total   8086202500                       # number of overall MSHR miss cycles
system.l2.demand_mshr_miss_rate::.cpu.inst     0.960000                       # mshr miss rate for demand accesses
system.l2.demand_mshr_miss_rate::.cpu.data     0.096255                       # mshr miss rate for demand accesses
system.l2.demand_mshr_miss_rate::total       0.096564                       # mshr miss rate for demand accesses
system.l2.overall_mshr_miss_rate::.cpu.inst     0.960000                       # mshr miss rate for overall accesses
system.l2.overall_mshr_miss_rate::.cpu.data     0.096255                       # mshr miss rate for overall accesses
system.l2.overall_mshr_miss_rate::total      0.096564                       # mshr miss rate for overall accesses
system.l2.demand_avg_mshr_miss_latency::.cpu.inst 87376.893939                       # average overall mshr miss latency
system.l2.demand_avg_mshr_miss_latency::.cpu.data 108865.658543                       # average overall mshr miss latency
system.l2.demand_avg_mshr_miss_latency::total 108789.335253                       # average overall mshr miss latency
system.l2.overall_avg_mshr_miss_latency::.cpu.inst 87376.893939                       # average overall mshr miss latency
system.l2.overall_avg_mshr_miss_latency::.cpu.data 108865.658543                       # average overall mshr miss latency
system.l2.overall_avg_mshr_miss_latency::total 108789.335253                       # average overall mshr miss latency
system.l2.replacements                          57951                       # number of replacements
system.l2.WritebackDirty_hits::.writebacks       747337                       # number of WritebackDirty hits
system.l2.WritebackDirty_hits::total           747337                       # number of WritebackDirty hits
system.l2.WritebackDirty_accesses::.writebacks       747337                       # number of WritebackDirty accesses(hits+misses)
system.l2.WritebackDirty_accesses::total       747337                       # number of WritebackDirty accesses(hits+misses)
system.l2.WritebackClean_hits::.writebacks            5                       # number of WritebackClean hits
system.l2.WritebackClean_hits::total                5                       # number of WritebackClean hits
system.l2.WritebackClean_accesses::.writebacks            5                       # number of WritebackClean accesses(hits+misses)
system.l2.WritebackClean_accesses::total            5                       # number of WritebackClean accesses(hits+misses)
system.l2.ReadExReq_hits::.cpu.data            271606                       # number of ReadExReq hits
system.l2.ReadExReq_hits::total                271606                       # number of ReadExReq hits
system.l2.ReadExReq_misses::.cpu.data           54983                       # number of ReadExReq misses
system.l2.ReadExReq_misses::total               54983                       # number of ReadExReq misses
system.l2.ReadExReq_miss_latency::.cpu.data   6892741500                       # number of ReadExReq miss cycles
system.l2.ReadExReq_miss_latency::total    6892741500                       # number of ReadExReq miss cycles
system.l2.ReadExReq_accesses::.cpu.data        326589                       # number of ReadExReq accesses(hits+misses)
system.l2.ReadExReq_accesses::total            326589                       # number of ReadExReq accesses(hits+misses)
system.l2.ReadExReq_miss_rate::.cpu.data     0.168355                       # miss rate for ReadExReq accesses
system.l2.ReadExReq_miss_rate::total         0.168355                       # miss rate for ReadExReq accesses
system.l2.ReadExReq_avg_miss_latency::.cpu.data 125361.320772                       # average ReadExReq miss latency
system.l2.ReadExReq_avg_miss_latency::total 125361.320772                       # average ReadExReq miss latency
system.l2.ReadExReq_mshr_misses::.cpu.data        54983                       # number of ReadExReq MSHR misses
system.l2.ReadExReq_mshr_misses::total          54983                       # number of ReadExReq MSHR misses
system.l2.ReadExReq_mshr_miss_latency::.cpu.data   6342911500                       # number of ReadExReq MSHR miss cycles
system.l2.ReadExReq_mshr_miss_latency::total   6342911500                       # number of ReadExReq MSHR miss cycles
system.l2.ReadExReq_mshr_miss_rate::.cpu.data     0.168355                       # mshr miss rate for ReadExReq accesses
system.l2.ReadExReq_mshr_miss_rate::total     0.168355                       # mshr miss rate for ReadExReq accesses
system.l2.ReadExReq_avg_mshr_miss_latency::.cpu.data 115361.320772                       # average ReadExReq mshr miss latency
system.l2.ReadExReq_avg_mshr_miss_latency::total 115361.320772                       # average ReadExReq mshr miss latency
system.l2.ReadCleanReq_hits::.cpu.inst             11                       # number of ReadCleanReq hits
system.l2.ReadCleanReq_hits::total                 11                       # number of ReadCleanReq hits
system.l2.ReadCleanReq_misses::.cpu.inst          264                       # number of ReadCleanReq misses
system.l2.ReadCleanReq_misses::total              264                       # number of ReadCleanReq misses
system.l2.ReadCleanReq_miss_latency::.cpu.inst     25707500                       # number of ReadCleanReq miss cycles
system.l2.ReadCleanReq_miss_latency::total     25707500                       # number of ReadCleanReq miss cycles
system.l2.ReadCleanReq_accesses::.cpu.inst          275                       # number of ReadCleanReq accesses(hits+misses)
system.l2.ReadCleanReq_accesses::total            275                       # number of ReadCleanReq accesses(hits+misses)
system.l2.ReadCleanReq_miss_rate::.cpu.inst     0.960000                       # miss rate for ReadCleanReq accesses
system.l2.ReadCleanReq_miss_rate::total      0.960000                       # miss rate for ReadCleanReq accesses
system.l2.ReadCleanReq_avg_miss_latency::.cpu.inst 97376.893939                       # average ReadCleanReq miss latency
system.l2.ReadCleanReq_avg_miss_latency::total 97376.893939                       # average ReadCleanReq miss latency
system.l2.ReadCleanReq_mshr_misses::.cpu.inst          264                       # number of ReadCleanReq MSHR misses
system.l2.ReadCleanReq_mshr_misses::total          264                       # number of ReadCleanReq MSHR misses
system.l2.ReadCleanReq_mshr_miss_latency::.cpu.inst     23067500                       # number of ReadCleanReq MSHR miss cycles
system.l2.ReadCleanReq_mshr_miss_latency::total     23067500                       # number of ReadCleanReq MSHR miss cycles
system.l2.ReadCleanReq_mshr_miss_rate::.cpu.inst     0.960000                       # mshr miss rate for ReadCleanReq accesses
system.l2.ReadCleanReq_mshr_miss_rate::total     0.960000                       # mshr miss rate for ReadCleanReq accesses
system.l2.ReadCleanReq_avg_mshr_miss_latency::.cpu.inst 87376.893939                       # average ReadCleanReq mshr miss latency
system.l2.ReadCleanReq_avg_mshr_miss_latency::total 87376.893939                       # average ReadCleanReq mshr miss latency
system.l2.ReadSharedReq_hits::.cpu.data        423789                       # number of ReadSharedReq hits
system.l2.ReadSharedReq_hits::total            423789                       # number of ReadSharedReq hits
system.l2.ReadSharedReq_misses::.cpu.data        19087                       # number of ReadSharedReq misses
system.l2.ReadSharedReq_misses::total           19087                       # number of ReadSharedReq misses
system.l2.ReadSharedReq_miss_latency::.cpu.data   1911479500                       # number of ReadSharedReq miss cycles
system.l2.ReadSharedReq_miss_latency::total   1911479500                       # number of ReadSharedReq miss cycles
system.l2.ReadSharedReq_accesses::.cpu.data       442876                       # number of ReadSharedReq accesses(hits+misses)
system.l2.ReadSharedReq_accesses::total        442876                       # number of ReadSharedReq accesses(hits+misses)
system.l2.ReadSharedReq_miss_rate::.cpu.data     0.043098                       # miss rate for ReadSharedReq accesses
system.l2.ReadSharedReq_miss_rate::total     0.043098                       # miss rate for ReadSharedReq accesses
system.l2.ReadSharedReq_avg_miss_latency::.cpu.data 100145.622675                       # average ReadSharedReq miss latency
system.l2.ReadSharedReq_avg_miss_latency::total 100145.622675                       # average ReadSharedReq miss latency
system.l2.ReadSharedReq_mshr_hits::.cpu.data            5                       # number of ReadSharedReq MSHR hits
system.l2.ReadSharedReq_mshr_hits::total            5                       # number of ReadSharedReq MSHR hits
system.l2.ReadSharedReq_mshr_misses::.cpu.data        19082                       # number of ReadSharedReq MSHR misses
system.l2.ReadSharedReq_mshr_misses::total        19082                       # number of ReadSharedReq MSHR misses
system.l2.ReadSharedReq_mshr_miss_latency::.cpu.data   1720223500                       # number of ReadSharedReq MSHR miss cycles
system.l2.ReadSharedReq_mshr_miss_latency::total   1720223500                       # number of ReadSharedReq MSHR miss cycles
system.l2.ReadSharedReq_mshr_miss_rate::.cpu.data     0.043087                       # mshr miss rate for ReadSharedReq accesses
system.l2.ReadSharedReq_mshr_miss_rate::total     0.043087                       # mshr miss rate for ReadSharedReq accesses
system.l2.ReadSharedReq_avg_mshr_miss_latency::.cpu.data 90149.014778                       # average ReadSharedReq mshr miss latency
system.l2.ReadSharedReq_avg_mshr_miss_latency::total 90149.014778                       # average ReadSharedReq mshr miss latency
system.l2.tags.pwrStateResidencyTicks::UNDEFINED  82446772000                       # Cumulative time (in ticks) in various power states
system.l2.tags.tagsinuse                 15859.036049                       # Cycle average of tags in use
system.l2.tags.total_refs                     1538658                       # Total number of references to valid blocks.
system.l2.tags.sampled_refs                     74335                       # Sample count of references to valid blocks.
system.l2.tags.avg_refs                     20.698971                       # Average number of references to valid blocks.
system.l2.tags.warmup_cycle                     92000                       # Cycle when the warmup percentage was hit.
system.l2.tags.occ_blocks::.writebacks       2.612062                       # Average occupied blocks per requestor
system.l2.tags.occ_blocks::.cpu.inst        36.362023                       # Average occupied blocks per requestor
system.l2.tags.occ_blocks::.cpu.data     15820.061964                       # Average occupied blocks per requestor
system.l2.tags.occ_percent::.writebacks      0.000159                       # Average percentage of cache occupancy
system.l2.tags.occ_percent::.cpu.inst        0.002219                       # Average percentage of cache occupancy
system.l2.tags.occ_percent::.cpu.data        0.965580                       # Average percentage of cache occupancy
system.l2.tags.occ_percent::total            0.967959                       # Average percentage of cache occupancy
system.l2.tags.occ_task_id_blocks::1024         16384                       # Occupied blocks per task id
system.l2.tags.age_task_id_blocks_1024::2            3                       # Occupied blocks per task id
system.l2.tags.age_task_id_blocks_1024::3          922                       # Occupied blocks per task id
system.l2.tags.age_task_id_blocks_1024::4        15459                       # Occupied blocks per task id
system.l2.tags.occ_task_id_percent::1024            1                       # Percentage of cache occupancy per task id
system.l2.tags.tag_accesses                  12383639                       # Number of tag accesses
system.l2.tags.data_accesses                 12383639                       # Number of data accesses
system.cpu_voltage_domain.voltage                   1                       # Voltage in Volts
system.mem_ctrls.pwrStateResidencyTicks::UNDEFINED  82446772000                       # Cumulative time (in ticks) in various power states
system.mem_ctrls.bytes_read::.cpu.inst          67584                       # Number of bytes read from this memory
system.mem_ctrls.bytes_read::.cpu.data       18960640                       # Number of bytes read from this memory
system.mem_ctrls.bytes_read::total           19028224                       # Number of bytes read from this memory
system.mem_ctrls.bytes_inst_read::.cpu.inst        67584                       # Number of instructions bytes read from this memory
system.mem_ctrls.bytes_inst_read::total         67584                       # Number of instructions bytes read from this memory
system.mem_ctrls.bytes_written::.writebacks     10297088                       # Number of bytes written to this memory
system.mem_ctrls.bytes_written::total        10297088                       # Number of bytes written to this memory
system.mem_ctrls.num_reads::.cpu.inst             264                       # Number of read requests responded to by this memory
system.mem_ctrls.num_reads::.cpu.data           74065                       # Number of read requests responded to by this memory
system.mem_ctrls.num_reads::total               74329                       # Number of read requests responded to by this memory
system.mem_ctrls.num_writes::.writebacks        40223                       # Number of write requests responded to by this memory
system.mem_ctrls.num_writes::total              40223                       # Number of write requests responded to by this memory
system.mem_ctrls.bw_read::.cpu.inst            819729                       # Total read bandwidth from this memory (bytes/s)
system.mem_ctrls.bw_read::.cpu.data         229974316                       # Total read bandwidth from this memory (bytes/s)
system.mem_ctrls.bw_read::total             230794045                       # Total read bandwidth from this memory (bytes/s)
system.mem_ctrls.bw_inst_read::.cpu.inst       819729                       # Instruction read bandwidth from this memory (bytes/s)
system.mem_ctrls.bw_inst_read::total           819729                       # Instruction read bandwidth from this memory (bytes/s)
system.mem_ctrls.bw_write::.writebacks      124893768                       # Write bandwidth from this memory (bytes/s)
system.mem_ctrls.bw_write::total            124893768                       # Write bandwidth from this memory (bytes/s)
system.mem_ctrls.bw_total::.writebacks      124893768                       # Total bandwidth to/from this memory (bytes/s)
system.mem_ctrls.bw_total::.cpu.inst           819729                       # Total bandwidth to/from this memory (bytes/s)
system.mem_ctrls.bw_total::.cpu.data        229974316                       # Total bandwidth to/from this memory (bytes/s)
system.mem_ctrls.bw_total::total            355687813                       # Total bandwidth to/from this memory (bytes/s)
system.mem_ctrls.avgPriority_.writebacks::samples    160892.00                       # Average QoS priority value for accepted requests
system.mem_ctrls.avgPriority_.cpu.inst::samples      1056.00                       # Average QoS priority value for accepted requests
system.mem_ctrls.avgPriority_.cpu.data::samples    296248.00                       # Average QoS priority value for accepted requests
system.mem_ctrls.priorityMinLatency      0.000000018750                       # per QoS priority minimum request to response latency (s)
system.mem_ctrls.priorityMaxLatency      0.004978402750                       # per QoS priority maximum request to response latency (s)
system.mem_ctrls.numReadWriteTurnArounds         9862                       # Number of turnarounds from READ to WRITE
system.mem_ctrls.numWriteReadTurnArounds         9862                       # Number of turnarounds from WRITE to READ
system.mem_ctrls.numStayReadState              411833                       # Number of times bus staying in READ state
system.mem_ctrls.numStayWriteState             151246                       # Number of times bus staying in WRITE state
system.mem_ctrls.readReqs                       74329                       # Number of read requests accepted
system.mem_ctrls.writeReqs                      40223                       # Number of write requests accepted
system.mem_ctrls.readBursts                    297316                       # Number of DRAM read bursts, including those serviced by the write queue
system.mem_ctrls.writeBursts                   160892                       # Number of DRAM write bursts, including those merged in the write queue
system.mem_ctrls.servicedByWrQ                     12                       # Number of DRAM read bursts serviced by the write queue
system.mem_ctrls.mergedWrBursts                     0                       # Number of DRAM write bursts merged with an existing one
system.mem_ctrls.neitherReadNorWriteReqs            0                       # Number of requests that are neither read nor write
system.mem_ctrls.perBankRdBursts::0             18848                       # Per bank write bursts
system.mem_ctrls.perBankRdBursts::1             18820                       # Per bank write bursts
system.mem_ctrls.perBankRdBursts::2             18752                       # Per bank write bursts
system.mem_ctrls.perBankRdBursts::3             18480                       # Per bank write bursts
system.mem_ctrls.perBankRdBursts::4             18584                       # Per bank write bursts
system.mem_ctrls.perBankRdBursts::5             18556                       # Per bank write bursts
system.mem_ctrls.perBankRdBursts::6             18472                       # Per bank write bursts
system.mem_ctrls.perBankRdBursts::7             18588                       # Per bank write bursts
system.mem_ctrls.perBankRdBursts::8             18496                       # Per bank write bursts
system.mem_ctrls.perBankRdBursts::9             18496                       # Per bank write bursts
system.mem_ctrls.perBankRdBursts::10            18676                       # Per bank write bursts
system.mem_ctrls.perBankRdBursts::11            18644                       # Per bank write bursts
system.mem_ctrls.perBankRdBursts::12            18576                       # Per bank write bursts
system.mem_ctrls.perBankRdBursts::13            18356                       # Per bank write bursts
system.mem_ctrls.perBankRdBursts::14            18356                       # Per bank write bursts
system.mem_ctrls.perBankRdBursts::15            18604                       # Per bank write bursts
system.mem_ctrls.perBankWrBursts::0             10112                       # Per bank write bursts
system.mem_ctrls.perBankWrBursts::1             10124                       # Per bank write bursts
system.mem_ctrls.perBankWrBursts::2             10180                       # Per bank write bursts
system.mem_ctrls.perBankWrBursts::3             10160                       # Per bank write bursts
system.mem_ctrls.perBankWrBursts::4             10104                       # Per bank write bursts
system.mem_ctrls.perBankWrBursts::5             10076                       # Per bank write bursts
system.mem_ctrls.perBankWrBursts::6             10052                       # Per bank write bursts
system.mem_ctrls.perBankWrBursts::7             10116                       # Per bank write bursts
system.mem_ctrls.perBankWrBursts::8             10028                       # Per bank write bursts
system.mem_ctrls.perBankWrBursts::9              9980                       # Per bank write bursts
system.mem_ctrls.perBankWrBursts::10             9981                       # Per bank write bursts
system.mem_ctrls.perBankWrBursts::11             9984                       # Per bank write bursts
system.mem_ctrls.perBankWrBursts::12             9972                       # Per bank write bursts
system.mem_ctrls.perBankWrBursts::13             9984                       # Per bank write bursts
system.mem_ctrls.perBankWrBursts::14             9980                       # Per bank write bursts
system.mem_ctrls.perBankWrBursts::15            10032                       # Per bank write bursts
system.mem_ctrls.avgRdQLen                       4.12                       # Average read queue length when enqueuing
system.mem_ctrls.avgWrQLen                      28.25                       # Average write queue length when enqueuing
system.mem_ctrls.totQLat                  11623326500                       # Total ticks spent queuing
system.mem_ctrls.totBusLat                 1486520000                       # Total ticks spent in databus transfers
system.mem_ctrls.totMemAccLat             17197776500                       # Total ticks spent from burst creation until serviced by the DRAM
system.mem_ctrls.avgQLat                     39095.76                       # Average queueing delay per DRAM burst
system.mem_ctrls.avgBusLat                    5000.00                       # Average bus latency per DRAM burst
system.mem_ctrls.avgMemAccLat                57845.76                       # Average memory access latency per DRAM burst
system.mem_ctrls.numRdRetry                         0                       # Number of times read queue was full causing retry
system.mem_ctrls.numWrRetry                         0                       # Number of times write queue was full causing retry
system.mem_ctrls.readRowHits                   267554                       # Number of row buffer hits during reads
system.mem_ctrls.writeRowHits                  144959                       # Number of row buffer hits during writes
system.mem_ctrls.readRowHitRate                 89.99                       # Row buffer hit rate for reads
system.mem_ctrls.writeRowHitRate                90.10                       # Row buffer hit rate for writes
system.mem_ctrls.readPktSize::0                     0                       # Read request sizes (log2)
system.mem_ctrls.readPktSize::1                     0                       # Read request sizes (log2)
system.mem_ctrls.readPktSize::2                     0                       # Read request sizes (log2)
system.mem_ctrls.readPktSize::3                     0                       # Read request sizes (log2)
system.mem_ctrls.readPktSize::4                     0                       # Read request sizes (log2)
system.mem_ctrls.readPktSize::5                     0                       # Read request sizes (log2)
system.mem_ctrls.readPktSize::6                297316                       # Read request sizes (log2)
system.mem_ctrls.writePktSize::0                    0                       # Write request sizes (log2)
system.mem_ctrls.writePktSize::1                    0                       # Write request sizes (log2)
system.mem_ctrls.writePktSize::2                    0                       # Write request sizes (log2)
system.mem_ctrls.writePktSize::3                    0                       # Write request sizes (log2)
system.mem_ctrls.writePktSize::4                    0                       # Write request sizes (log2)
system.mem_ctrls.writePktSize::5                    0                       # Write request sizes (log2)
system.mem_ctrls.writePktSize::6               160892                       # Write request sizes (log2)
system.mem_ctrls.rdQLenPdf::0                   58595                       # What read queue length does an incoming req see
system.mem_ctrls.rdQLenPdf::1                   58673                       # What read queue length does an incoming req see
system.mem_ctrls.rdQLenPdf::2                   58798                       # What read queue length does an incoming req see
system.mem_ctrls.rdQLenPdf::3                   59887                       # What read queue length does an incoming req see
system.mem_ctrls.rdQLenPdf::4                   15729                       # What read queue length does an incoming req see
system.mem_ctrls.rdQLenPdf::5                   15651                       # What read queue length does an incoming req see
system.mem_ctrls.rdQLenPdf::6                   15526                       # What read queue length does an incoming req see
system.mem_ctrls.rdQLenPdf::7                   14437                       # What read queue length does an incoming req see
system.mem_ctrls.rdQLenPdf::8                       2                       # What read queue length does an incoming req see
system.mem_ctrls.rdQLenPdf::9                       2                       # What read queue length does an incoming req see
system.mem_ctrls.rdQLenPdf::10                      2                       # What read queue length does an incoming req see
system.mem_ctrls.rdQLenPdf::11                      2                       # What read queue length does an incoming req see
system.mem_ctrls.rdQLenPdf::12                      0                       # What read queue length does an incoming req see
system.mem_ctrls.rdQLenPdf::13                      0                       # What read queue length does an incoming req see
system.mem_ctrls.rdQLenPdf::14                      0                       # What read queue length does an incoming req see
system.mem_ctrls.rdQLenPdf::15                      0                       # What read queue length does an incoming req see
system.mem_ctrls.rdQLenPdf::16                      0                       # What read queue length does an incoming req see
system.mem_ctrls.rdQLenPdf::17                      0                       # What read queue length does an incoming req see
system.mem_ctrls.rdQLenPdf::18                      0                       # What read queue length does an incoming req see
system.mem_ctrls.rdQLenPdf::19                      0                       # What read queue length does an incoming req see
system.mem_ctrls.rdQLenPdf::20                      0                       # What read queue length does an incoming req see
system.mem_ctrls.rdQLenPdf::21                      0                       # What read queue length does an incoming req see
system.mem_ctrls.rdQLenPdf::22                      0                       # What read queue length does an incoming req see
system.mem_ctrls.rdQLenPdf::23                      0                       # What read queue length does an incoming req see
system.mem_ctrls.rdQLenPdf::24                      0                       # What read queue length does an incoming req see
system.mem_ctrls.rdQLenPdf::25                      0                       # What read queue length does an incoming req see
system.mem_ctrls.rdQLenPdf::26                      0                       # What read queue length does an incoming req see
system.mem_ctrls.rdQLenPdf::27                      0                       # What read queue length does an incoming req see
system.mem_ctrls.rdQLenPdf::28                      0                       # What read queue length does an incoming req see
system.mem_ctrls.rdQLenPdf::29                      0                       # What read queue length does an incoming req see
system.mem_ctrls.rdQLenPdf::30                      0                       # What read queue length does an incoming req see
system.mem_ctrls.rdQLenPdf::31                      0                       # What read queue length does an incoming req see
system.mem_ctrls.wrQLenPdf::0                       1                       # What write queue length does an incoming req see
system.mem_ctrls.wrQLenPdf::1                       1                       # What write queue length does an incoming req see
system.mem_ctrls.wrQLenPdf::2                       1                       # What write queue length does an incoming req see
system.mem_ctrls.wrQLenPdf::3                       1                       # What write queue length does an incoming req see
system.mem_ctrls.wrQLenPdf::4                       1                       # What write queue length does an incoming req see
system.mem_ctrls.wrQLenPdf::5                       1                       # What write queue length does an incoming req see
system.mem_ctrls.wrQLenPdf::6                       1                       # What write queue length does an incoming req see
system.mem_ctrls.wrQLenPdf::7                       1                       # What write queue length does an incoming req see
system.mem_ctrls.wrQLenPdf::8                       1                       # What write queue length does an incoming req see
system.mem_ctrls.wrQLenPdf::9                       1                       # What write queue length does an incoming req see
system.mem_ctrls.wrQLenPdf::10                      1                       # What write queue length does an incoming req see
system.mem_ctrls.wrQLenPdf::11                      1                       # What write queue length does an incoming req see
system.mem_ctrls.wrQLenPdf::12                      1                       # What write queue length does an incoming req see
system.mem_ctrls.wrQLenPdf::13                      1                       # What write queue length does an incoming req see
system.mem_ctrls.wrQLenPdf::14                      1                       # What write queue length does an incoming req see
system.mem_ctrls.wrQLenPdf::15                    673                       # What write queue length does an incoming req see
system.mem_ctrls.wrQLenPdf::16                    690                       # What write queue length does an incoming req see
system.mem_ctrls.wrQLenPdf::17                   1676                       # What write queue length does an incoming req see
system.mem_ctrls.wrQLenPdf::18                   2236                       # What write queue length does an incoming req see
system.mem_ctrls.wrQLenPdf::19                   4008                       # What write queue length does an incoming req see
system.mem_ctrls.wrQLenPdf::20                   5247                       # What write queue length does an incoming req see
system.mem_ctrls.wrQLenPdf::21                   6198                       # What write queue length does an incoming req see
system.mem_ctrls.wrQLenPdf::22                   7266                       # What write queue length does an incoming req see
system.mem_ctrls.wrQLenPdf::23                   9092                       # What write queue length does an incoming req see
system.mem_ctrls.wrQLenPdf::24                  10587                       # What write queue length does an incoming req see
system.mem_ctrls.wrQLenPdf::25                  10945                       # What write queue length does an incoming req see
system.mem_ctrls.wrQLenPdf::26                  11666                       # What write queue length does an incoming req see
system.mem_ctrls.wrQLenPdf::27                  12025                       # What write queue length does an incoming req see
system.mem_ctrls.wrQLenPdf::28                  12818                       # What write queue length does an incoming req see
system.mem_ctrls.wrQLenPdf::29                  13153                       # What write queue length does an incoming req see
system.mem_ctrls.wrQLenPdf::30                  12449                       # What write queue length does an incoming req see
system.mem_ctrls.wrQLenPdf::31                  11855                       # What write queue length does an incoming req see
system.mem_ctrls.wrQLenPdf::32                  10844                       # What write queue length does an incoming req see
system.mem_ctrls.wrQLenPdf::33                   8222                       # What write queue length does an incoming req see
system.mem_ctrls.wrQLenPdf::34                   6584                       # What write queue length does an incoming req see
system.mem_ctrls.wrQLenPdf::35                   2557                       # What write queue length does an incoming req see
system.mem_ctrls.wrQLenPdf::36                     33                       # What write queue length does an incoming req see
system.mem_ctrls.wrQLenPdf::37                     25                       # What write queue length does an incoming req see
system.mem_ctrls.wrQLenPdf::38                     18                       # What write queue length does an incoming req see
system.mem_ctrls.wrQLenPdf::39                     10                       # What write queue length does an incoming req see
system.mem_ctrls.wrQLenPdf::40                      0                       # What write queue length does an incoming req see
system.mem_ctrls.wrQLenPdf::41                      0                       # What write queue length does an incoming req see
system.mem_ctrls.wrQLenPdf::42                      0                       # What write queue length does an incoming req see
system.mem_ctrls.wrQLenPdf::43                      0                       # What write queue length does an incoming req see
system.mem_ctrls.wrQLenPdf::44                      0                       # What write queue length does an incoming req see
system.mem_ctrls.wrQLenPdf::45                      0                       # What write queue length does an incoming req see
system.mem_ctrls.wrQLenPdf::46                      0                       # What write queue length does an incoming req see
system.mem_ctrls.wrQLenPdf::47                      0                       # What write queue length does an incoming req see
system.mem_ctrls.wrQLenPdf::48                      0                       # What write queue length does an incoming req see
system.mem_ctrls.wrQLenPdf::49                      0                       # What write queue length does an incoming req see
system.mem_ctrls.wrQLenPdf::50                      0                       # What write queue length does an incoming req see
system.mem_ctrls.wrQLenPdf::51                      0                       # What write queue length does an incoming req see
system.mem_ctrls.wrQLenPdf::52                      0                       # What write queue length does an incoming req see
system.mem_ctrls.wrQLenPdf::53                      0                       # What write queue length does an incoming req see
system.mem_ctrls.wrQLenPdf::54                      0                       # What write queue length does an incoming req see
system.mem_ctrls.wrQLenPdf::55                      0                       # What write queue length does an incoming req see
system.mem_ctrls.wrQLenPdf::56                      0                       # What write queue length does an incoming req see
system.mem_ctrls.wrQLenPdf::57                      0                       # What write queue length does an incoming req see
system.mem_ctrls.wrQLenPdf::58                      0                       # What write queue length does an incoming req see
system.mem_ctrls.wrQLenPdf::59                      0                       # What write queue length does an incoming req see
system.mem_ctrls.wrQLenPdf::60                      0                       # What write queue length does an incoming req see
system.mem_ctrls.wrQLenPdf::61                      0                       # What write queue length does an incoming req see
system.mem_ctrls.wrQLenPdf::62                      0                       # What write queue length does an incoming req see
system.mem_ctrls.wrQLenPdf::63                      0                       # What write queue length does an incoming req see
system.mem_ctrls.bytesPerActivate::samples        45656                       # Bytes accessed per row activation
system.mem_ctrls.bytesPerActivate::mean    642.255476                       # Bytes accessed per row activation
system.mem_ctrls.bytesPerActivate::gmean   531.949645                       # Bytes accessed per row activation
system.mem_ctrls.bytesPerActivate::stdev   343.687260                       # Bytes accessed per row activation
system.mem_ctrls.bytesPerActivate::0-127          674      1.48%      1.48% # Bytes accessed per row activation
system.mem_ctrls.bytesPerActivate::128-255          824      1.80%      3.28% # Bytes accessed per row activation
system.mem_ctrls.bytesPerActivate::256-383        14723     32.25%     35.53% # Bytes accessed per row activation
system.mem_ctrls.bytesPerActivate::384-511         1111      2.43%     37.96% # Bytes accessed per row activation
system.mem_ctrls.bytesPerActivate::512-639         5760     12.62%     50.58% # Bytes accessed per row activation
system.mem_ctrls.bytesPerActivate::640-767         1147      2.51%     53.09% # Bytes accessed per row activation
system.mem_ctrls.bytesPerActivate::768-895         3236      7.09%     60.18% # Bytes accessed per row activation
system.mem_ctrls.bytesPerActivate::896-1023          496      1.09%     61.26% # Bytes accessed per row activation
system.mem_ctrls.bytesPerActivate::1024-1151        17685     38.74%    100.00% # Bytes accessed per row activation
system.mem_ctrls.bytesPerActivate::total        45656                       # Bytes accessed per row activation
system.mem_ctrls.rdPerTurnAround::samples         9862                       # Reads before turning the bus around for writes
system.mem_ctrls.rdPerTurnAround::mean      30.146015                       # Reads before turning the bus around for writes
system.mem_ctrls.rdPerTurnAround::gmean     21.807457                       # Reads before turning the bus around for writes
system.mem_ctrls.rdPerTurnAround::stdev    178.087355                       # Reads before turning the bus around for writes
system.mem_ctrls.rdPerTurnAround::0-1023         9858     99.96%     99.96% # Reads before turning the bus around for writes
system.mem_ctrls.rdPerTurnAround::1024-2047            3      0.03%     99.99% # Reads before turning the bus around for writes
system.mem_ctrls.rdPerTurnAround::16384-17407            1      0.01%    100.00% # Reads before turning the bus around for writes
system.mem_ctrls.rdPerTurnAround::total          9862                       # Reads before turning the bus around for writes
system.mem_ctrls.wrPerTurnAround::samples         9862                       # Writes before turning the bus around for reads
system.mem_ctrls.wrPerTurnAround::mean      16.311600                       # Writes before turning the bus around for reads
system.mem_ctrls.wrPerTurnAround::gmean     16.279519                       # Writes before turning the bus around for reads
system.mem_ctrls.wrPerTurnAround::stdev      1.094901                       # Writes before turning the bus around for reads
system.mem_ctrls.wrPerTurnAround::16             9102     92.29%     92.29% # Writes before turning the bus around for reads
system.mem_ctrls.wrPerTurnAround::17                8      0.08%     92.37% # Writes before turning the bus around for reads
system.mem_ctrls.wrPerTurnAround::18               15      0.15%     92.53% # Writes before turning the bus around for reads
[...]
system.cpu.icache.ReadReq_avg_miss_latency::.cpu.inst 96445.454545                       # average ReadReq miss latency
system.cpu.icache.ReadReq_avg_miss_latency::total 96445.454545                       # average ReadReq miss latency
system.cpu.icache.ReadReq_mshr_misses::.cpu.inst          275                       # number of ReadReq MSHR misses
system.cpu.icache.ReadReq_mshr_misses::total          275                       # number of ReadReq MSHR misses
system.cpu.icache.ReadReq_mshr_miss_latency::.cpu.inst     26247500                       # number of ReadReq MSHR miss cycles
system.cpu.icache.ReadReq_mshr_miss_latency::total     26247500                       # number of ReadReq MSHR miss cycles
system.cpu.icache.ReadReq_mshr_miss_rate::.cpu.inst     0.000039                       # mshr miss rate for ReadReq accesses
system.cpu.icache.ReadReq_mshr_miss_rate::total     0.000039                       # mshr miss rate for ReadReq accesses
system.cpu.icache.ReadReq_avg_mshr_miss_latency::.cpu.inst 95445.454545                       # average ReadReq mshr miss latency
system.cpu.icache.ReadReq_avg_mshr_miss_latency::total 95445.454545                       # average ReadReq mshr miss latency
system.cpu.icache.tags.pwrStateResidencyTicks::UNDEFINED  82446772000                       # Cumulative time (in ticks) in various power states
system.cpu.icache.tags.tagsinuse           235.714868                       # Cycle average of tags in use
system.cpu.icache.tags.total_refs             7019771                       # Total number of references to valid blocks.
system.cpu.icache.tags.sampled_refs               275                       # Sample count of references to valid blocks.
system.cpu.icache.tags.avg_refs          25526.440000                       # Average number of references to valid blocks.
system.cpu.icache.tags.warmup_cycle            102500                       # Cycle when the warmup percentage was hit.
system.cpu.icache.tags.occ_blocks::.cpu.inst   235.714868                       # Average occupied blocks per requestor
system.cpu.icache.tags.occ_percent::.cpu.inst     0.460381                       # Average percentage of cache occupancy
system.cpu.icache.tags.occ_percent::total     0.460381                       # Average percentage of cache occupancy
system.cpu.icache.tags.occ_task_id_blocks::1024          270                       # Occupied blocks per task id
system.cpu.icache.tags.age_task_id_blocks_1024::3           24                       # Occupied blocks per task id
system.cpu.icache.tags.age_task_id_blocks_1024::4          246                       # Occupied blocks per task id
system.cpu.icache.tags.occ_task_id_percent::1024     0.527344                       # Percentage of cache occupancy per task id
system.cpu.icache.tags.tag_accesses          28079359                       # Number of tag accesses
system.cpu.icache.tags.data_accesses         28079359                       # Number of data accesses
system.cpu.dtb.walker.pwrStateResidencyTicks::UNDEFINED  82446772000                       # Cumulative time (in ticks) in various power states
system.cpu.dtb.stage2_mmu.stage2_tlb.walker.pwrStateResidencyTicks::UNDEFINED  82446772000                       # Cumulative time (in ticks) in various power states
system.cpu.dcache.pwrStateResidencyTicks::UNDEFINED  82446772000                       # Cumulative time (in ticks) in various power states
system.cpu.dcache.demand_hits::.cpu.data     51262964                       # number of demand (read+write) hits
system.cpu.dcache.demand_hits::total         51262964                       # number of demand (read+write) hits
system.cpu.dcache.overall_hits::.cpu.data     51264226                       # number of overall hits
system.cpu.dcache.overall_hits::total        51264226                       # number of overall hits
system.cpu.dcache.demand_misses::.cpu.data       786003                       # number of demand (read+write) misses
system.cpu.dcache.demand_misses::total         786003                       # number of demand (read+write) misses
system.cpu.dcache.overall_misses::.cpu.data       793162                       # number of overall misses
system.cpu.dcache.overall_misses::total        793162                       # number of overall misses
system.cpu.dcache.demand_miss_latency::.cpu.data  19690264500                       # number of demand (read+write) miss cycles
system.cpu.dcache.demand_miss_latency::total  19690264500                       # number of demand (read+write) miss cycles
system.cpu.dcache.overall_miss_latency::.cpu.data  19690264500                       # number of overall miss cycles
system.cpu.dcache.overall_miss_latency::total  19690264500                       # number of overall miss cycles
system.cpu.dcache.demand_accesses::.cpu.data     52048967                       # number of demand (read+write) accesses
system.cpu.dcache.demand_accesses::total     52048967                       # number of demand (read+write) accesses
system.cpu.dcache.overall_accesses::.cpu.data     52057388                       # number of overall (read+write) accesses
system.cpu.dcache.overall_accesses::total     52057388                       # number of overall (read+write) accesses
system.cpu.dcache.demand_miss_rate::.cpu.data     0.015101                       # miss rate for demand accesses
system.cpu.dcache.demand_miss_rate::total     0.015101                       # miss rate for demand accesses
system.cpu.dcache.overall_miss_rate::.cpu.data     0.015236                       # miss rate for overall accesses
system.cpu.dcache.overall_miss_rate::total     0.015236                       # miss rate for overall accesses
system.cpu.dcache.demand_avg_miss_latency::.cpu.data 25051.131484                       # average overall miss latency
system.cpu.dcache.demand_avg_miss_latency::total 25051.131484                       # average overall miss latency
system.cpu.dcache.overall_avg_miss_latency::.cpu.data 24825.022505                       # average overall miss latency
system.cpu.dcache.overall_avg_miss_latency::total 24825.022505                       # average overall miss latency
system.cpu.dcache.blocked_cycles::no_mshrs            0                       # number of cycles access was blocked
system.cpu.dcache.blocked_cycles::no_targets            0                       # number of cycles access was blocked
system.cpu.dcache.blocked::no_mshrs                 0                       # number of cycles access was blocked
system.cpu.dcache.blocked::no_targets               0                       # number of cycles access was blocked
system.cpu.dcache.avg_blocked_cycles::no_mshrs          nan                       # average number of cycles each access was blocked
system.cpu.dcache.avg_blocked_cycles::no_targets          nan                       # average number of cycles each access was blocked
system.cpu.dcache.writebacks::.writebacks       747337                       # number of writebacks
system.cpu.dcache.writebacks::total            747337                       # number of writebacks
system.cpu.dcache.demand_mshr_hits::.cpu.data        18518                       # number of demand (read+write) MSHR hits
system.cpu.dcache.demand_mshr_hits::total        18518                       # number of demand (read+write) MSHR hits
system.cpu.dcache.overall_mshr_hits::.cpu.data        18518                       # number of overall MSHR hits
system.cpu.dcache.overall_mshr_hits::total        18518                       # number of overall MSHR hits
system.cpu.dcache.demand_mshr_misses::.cpu.data       767485                       # number of demand (read+write) MSHR misses
system.cpu.dcache.demand_mshr_misses::total       767485                       # number of demand (read+write) MSHR misses
system.cpu.dcache.overall_mshr_misses::.cpu.data       769465                       # number of overall MSHR misses
system.cpu.dcache.overall_mshr_misses::total       769465                       # number of overall MSHR misses
system.cpu.dcache.demand_mshr_miss_latency::.cpu.data  17317090500                       # number of demand (read+write) MSHR miss cycles
system.cpu.dcache.demand_mshr_miss_latency::total  17317090500                       # number of demand (read+write) MSHR miss cycles
system.cpu.dcache.overall_mshr_miss_latency::.cpu.data  17495242000                       # number of overall MSHR miss cycles
system.cpu.dcache.overall_mshr_miss_latency::total  17495242000                       # number of overall MSHR miss cycles
system.cpu.dcache.demand_mshr_miss_rate::.cpu.data     0.014745                       # mshr miss rate for demand accesses
system.cpu.dcache.demand_mshr_miss_rate::total     0.014745                       # mshr miss rate for demand accesses
system.cpu.dcache.overall_mshr_miss_rate::.cpu.data     0.014781                       # mshr miss rate for overall accesses
system.cpu.dcache.overall_mshr_miss_rate::total     0.014781                       # mshr miss rate for overall accesses
system.cpu.dcache.demand_avg_mshr_miss_latency::.cpu.data 22563.425344                       # average overall mshr miss latency
system.cpu.dcache.demand_avg_mshr_miss_latency::total 22563.425344                       # average overall mshr miss latency
system.cpu.dcache.overall_avg_mshr_miss_latency::.cpu.data 22736.891217                       # average overall mshr miss latency
system.cpu.dcache.overall_avg_mshr_miss_latency::total 22736.891217                       # average overall mshr miss latency
system.cpu.dcache.replacements                 769208                       # number of replacements
system.cpu.dcache.ReadReq_hits::.cpu.data     40656007                       # number of ReadReq hits
system.cpu.dcache.ReadReq_hits::total        40656007                       # number of ReadReq hits
system.cpu.dcache.ReadReq_misses::.cpu.data       442874                       # number of ReadReq misses
system.cpu.dcache.ReadReq_misses::total        442874                       # number of ReadReq misses
system.cpu.dcache.ReadReq_miss_latency::.cpu.data   7671028000                       # number of ReadReq miss cycles
system.cpu.dcache.ReadReq_miss_latency::total   7671028000                       # number of ReadReq miss cycles
system.cpu.dcache.ReadReq_accesses::.cpu.data     41098881                       # number of ReadReq accesses(hits+misses)
system.cpu.dcache.ReadReq_accesses::total     41098881                       # number of ReadReq accesses(hits+misses)
system.cpu.dcache.ReadReq_miss_rate::.cpu.data     0.010776                       # miss rate for ReadReq accesses
system.cpu.dcache.ReadReq_miss_rate::total     0.010776                       # miss rate for ReadReq accesses
system.cpu.dcache.ReadReq_avg_miss_latency::.cpu.data 17321.016813                       # average ReadReq miss latency
system.cpu.dcache.ReadReq_avg_miss_latency::total 17321.016813                       # average ReadReq miss latency
system.cpu.dcache.ReadReq_mshr_hits::.cpu.data         1978                       # number of ReadReq MSHR hits
system.cpu.dcache.ReadReq_mshr_hits::total         1978                       # number of ReadReq MSHR hits
system.cpu.dcache.ReadReq_mshr_misses::.cpu.data       440896                       # number of ReadReq MSHR misses
system.cpu.dcache.ReadReq_mshr_misses::total       440896                       # number of ReadReq MSHR misses
system.cpu.dcache.ReadReq_mshr_miss_latency::.cpu.data   7077086500                       # number of ReadReq MSHR miss cycles
system.cpu.dcache.ReadReq_mshr_miss_latency::total   7077086500                       # number of ReadReq MSHR miss cycles
system.cpu.dcache.ReadReq_mshr_miss_rate::.cpu.data     0.010728                       # mshr miss rate for ReadReq accesses
system.cpu.dcache.ReadReq_mshr_miss_rate::total     0.010728                       # mshr miss rate for ReadReq accesses
system.cpu.dcache.ReadReq_avg_mshr_miss_latency::.cpu.data 16051.600604                       # average ReadReq mshr miss latency
system.cpu.dcache.ReadReq_avg_mshr_miss_latency::total 16051.600604                       # average ReadReq mshr miss latency
system.cpu.dcache.WriteReq_hits::.cpu.data     10606957                       # number of WriteReq hits
system.cpu.dcache.WriteReq_hits::total       10606957                       # number of WriteReq hits
system.cpu.dcache.WriteReq_misses::.cpu.data       343129                       # number of WriteReq misses
system.cpu.dcache.WriteReq_misses::total       343129                       # number of WriteReq misses
system.cpu.dcache.WriteReq_miss_latency::.cpu.data  12019236500                       # number of WriteReq miss cycles
system.cpu.dcache.WriteReq_miss_latency::total  12019236500                       # number of WriteReq miss cycles
system.cpu.dcache.WriteReq_accesses::.cpu.data     10950086                       # number of WriteReq accesses(hits+misses)
system.cpu.dcache.WriteReq_accesses::total     10950086                       # number of WriteReq accesses(hits+misses)
system.cpu.dcache.WriteReq_miss_rate::.cpu.data     0.031336                       # miss rate for WriteReq accesses
system.cpu.dcache.WriteReq_miss_rate::total     0.031336                       # miss rate for WriteReq accesses
system.cpu.dcache.WriteReq_avg_miss_latency::.cpu.data 35028.331910                       # average WriteReq miss latency
system.cpu.dcache.WriteReq_avg_miss_latency::total 35028.331910                       # average WriteReq miss latency
system.cpu.dcache.WriteReq_mshr_hits::.cpu.data        16540                       # number of WriteReq MSHR hits
system.cpu.dcache.WriteReq_mshr_hits::total        16540                       # number of WriteReq MSHR hits
system.cpu.dcache.WriteReq_mshr_misses::.cpu.data       326589                       # number of WriteReq MSHR misses
system.cpu.dcache.WriteReq_mshr_misses::total       326589                       # number of WriteReq MSHR misses
system.cpu.dcache.WriteReq_mshr_miss_latency::.cpu.data  10240004000                       # number of WriteReq MSHR miss cycles
system.cpu.dcache.WriteReq_mshr_miss_latency::total  10240004000                       # number of WriteReq MSHR miss cycles
system.cpu.dcache.WriteReq_mshr_miss_rate::.cpu.data     0.029825                       # mshr miss rate for WriteReq accesses
system.cpu.dcache.WriteReq_mshr_miss_rate::total     0.029825                       # mshr miss rate for WriteReq accesses
system.cpu.dcache.WriteReq_avg_mshr_miss_latency::.cpu.data 31354.405690                       # average WriteReq mshr miss latency
system.cpu.dcache.WriteReq_avg_mshr_miss_latency::total 31354.405690                       # average WriteReq mshr miss latency
system.cpu.dcache.SoftPFReq_hits::.cpu.data         1262                       # number of SoftPFReq hits
system.cpu.dcache.SoftPFReq_hits::total          1262                       # number of SoftPFReq hits
system.cpu.dcache.SoftPFReq_misses::.cpu.data         7159                       # number of SoftPFReq misses
system.cpu.dcache.SoftPFReq_misses::total         7159                       # number of SoftPFReq misses
system.cpu.dcache.SoftPFReq_accesses::.cpu.data         8421                       # number of SoftPFReq accesses(hits+misses)
system.cpu.dcache.SoftPFReq_accesses::total         8421                       # number of SoftPFReq accesses(hits+misses)
system.cpu.dcache.SoftPFReq_miss_rate::.cpu.data     0.850137                       # miss rate for SoftPFReq accesses
system.cpu.dcache.SoftPFReq_miss_rate::total     0.850137                       # miss rate for SoftPFReq accesses
system.cpu.dcache.SoftPFReq_mshr_misses::.cpu.data         1980                       # number of SoftPFReq MSHR misses
system.cpu.dcache.SoftPFReq_mshr_misses::total         1980                       # number of SoftPFReq MSHR misses
system.cpu.dcache.SoftPFReq_mshr_miss_latency::.cpu.data    178151500                       # number of SoftPFReq MSHR miss cycles
system.cpu.dcache.SoftPFReq_mshr_miss_latency::total    178151500                       # number of SoftPFReq MSHR miss cycles
system.cpu.dcache.SoftPFReq_mshr_miss_rate::.cpu.data     0.235126                       # mshr miss rate for SoftPFReq accesses
system.cpu.dcache.SoftPFReq_mshr_miss_rate::total     0.235126                       # mshr miss rate for SoftPFReq accesses
system.cpu.dcache.SoftPFReq_avg_mshr_miss_latency::.cpu.data 89975.505051                       # average SoftPFReq mshr miss latency
system.cpu.dcache.SoftPFReq_avg_mshr_miss_latency::total 89975.505051                       # average SoftPFReq mshr miss latency
system.cpu.dcache.LoadLockedReq_hits::.cpu.data           38                       # number of LoadLockedReq hits
system.cpu.dcache.LoadLockedReq_hits::total           38                       # number of LoadLockedReq hits
system.cpu.dcache.LoadLockedReq_accesses::.cpu.data           38                       # number of LoadLockedReq accesses(hits+misses)
system.cpu.dcache.LoadLockedReq_accesses::total           38                       # number of LoadLockedReq accesses(hits+misses)
system.cpu.dcache.StoreCondReq_hits::.cpu.data           38                       # number of StoreCondReq hits
system.cpu.dcache.StoreCondReq_hits::total           38                       # number of StoreCondReq hits
system.cpu.dcache.StoreCondReq_accesses::.cpu.data           38                       # number of StoreCondReq accesses(hits+misses)
system.cpu.dcache.StoreCondReq_accesses::total           38                       # number of StoreCondReq accesses(hits+misses)
system.cpu.dcache.tags.pwrStateResidencyTicks::UNDEFINED  82446772000                       # Cumulative time (in ticks) in various power states
system.cpu.dcache.tags.tagsinuse           252.004218                       # Cycle average of tags in use
system.cpu.dcache.tags.total_refs            52033766                       # Total number of references to valid blocks.
system.cpu.dcache.tags.sampled_refs            769464                       # Sample count of references to valid blocks.
system.cpu.dcache.tags.avg_refs             67.623392                       # Average number of references to valid blocks.
system.cpu.dcache.tags.warmup_cycle            210500                       # Cycle when the warmup percentage was hit.
system.cpu.dcache.tags.occ_blocks::.cpu.data   252.004218                       # Average occupied blocks per requestor
system.cpu.dcache.tags.occ_percent::.cpu.data     0.984391                       # Average percentage of cache occupancy
system.cpu.dcache.tags.occ_percent::total     0.984391                       # Average percentage of cache occupancy
system.cpu.dcache.tags.occ_task_id_blocks::1024          256                       # Occupied blocks per task id
system.cpu.dcache.tags.age_task_id_blocks_1024::0          190                       # Occupied blocks per task id
system.cpu.dcache.tags.age_task_id_blocks_1024::1           65                       # Occupied blocks per task id
system.cpu.dcache.tags.age_task_id_blocks_1024::2            1                       # Occupied blocks per task id
system.cpu.dcache.tags.occ_task_id_percent::1024            1                       # Percentage of cache occupancy per task id
system.cpu.dcache.tags.tag_accesses         104884392                       # Number of tag accesses
system.cpu.dcache.tags.data_accesses        104884392                       # Number of data accesses
system.cpu.itb.walker.pwrStateResidencyTicks::UNDEFINED  82446772000                       # Cumulative time (in ticks) in various power states
system.cpu.itb.stage2_mmu.stage2_tlb.walker.pwrStateResidencyTicks::UNDEFINED  82446772000                       # Cumulative time (in ticks) in various power states

---------- End Simulation Statistics   ----------
