
---------- Begin Simulation Statistics ----------
final_tick                               258580036500                       # Number of ticks from beginning of simulation (restored from checkpoints and never reset)
host_inst_rate                                 250723                       # Simulator instruction rate (inst/s)
host_mem_usage                                 682400                       # Number of bytes of host memory used
host_op_rate                                   461768                       # Simulator op (including micro ops) rate (op/s)
host_seconds                                   398.85                       # Real time elapsed on the host
host_tick_rate                              648318267                       # Simulator tick rate (ticks/s)
sim_freq                                 1000000000000                       # Frequency of simulated ticks
sim_insts                                   100000000                       # Number of instructions simulated
sim_ops                                     184174857                       # Number of ops (including micro ops) simulated
sim_seconds                                  0.258580                       # Number of seconds simulated
sim_ticks                                258580036500                       # Number of ticks simulated
system.cpu.branchPred.BTBCorrect                    0                       # Number of correct BTB predictions (this stat may not work properly.
system.cpu.branchPred.BTBHitPct             99.955772                       # BTB Hit Percentage
system.cpu.branchPred.BTBHits                10560998                       # Number of BTB hits
system.cpu.branchPred.BTBLookups             10565671                       # Number of BTB lookups
system.cpu.branchPred.RASInCorrect                  5                       # Number of incorrect RAS predictions.
system.cpu.branchPred.condIncorrect              1454                       # Number of conditional branches incorrect
system.cpu.branchPred.condPredicted          10562135                       # Number of conditional branches predicted
system.cpu.branchPred.indirectHits                 30                       # Number of indirect target hits.
system.cpu.branchPred.indirectLookups             216                       # Number of indirect predictor lookups.
system.cpu.branchPred.indirectMisses              186                       # Number of indirect misses.
system.cpu.branchPred.lookups                10570376                       # Number of BP lookups
system.cpu.branchPred.usedRAS                    2730                       # Number of times the RAS was used to get a target.
system.cpu.branchPredindirectMispredicted           97                       # Number of mispredicted indirect branches.
system.cpu.committedInsts                   100000000                       # Number of instructions committed
system.cpu.committedOps                     184174857                       # Number of ops (including micro ops) committed
system.cpu.cpi                               5.171601                       # CPI: cycles per instruction
system.cpu.discardedOps                          4308                       # Number of ops (including micro ops) which were discarded before commit
system.cpu.dtb.accesses                             0                       # DTB accesses
system.cpu.dtb.align_faults                         0                       # Number of TLB faults due to alignment restrictions
system.cpu.dtb.domain_faults                        0                       # Number of TLB faults due to domain restrictions
system.cpu.dtb.flush_entries                        0                       # Number of entries that have been flushed from TLB
system.cpu.dtb.flush_tlb                            0                       # Number of times complete TLB was flushed
system.cpu.dtb.flush_tlb_asid                       0                       # Number of times TLB was flushed by ASID
system.cpu.dtb.flush_tlb_mva                        0                       # Number of times TLB was flushed by MVA
system.cpu.dtb.flush_tlb_mva_asid                   0                       # Number of times TLB was flushed by MVA & ASID
system.cpu.dtb.hits                                 0                       # DTB hits
system.cpu.dtb.inst_accesses                        0                       # ITB inst accesses
system.cpu.dtb.inst_hits                            0                       # ITB inst hits
system.cpu.dtb.inst_misses                          0                       # ITB inst misses
system.cpu.dtb.misses                               0                       # DTB misses
system.cpu.dtb.perms_faults                         0                       # Number of TLB faults due to permissions restrictions
system.cpu.dtb.prefetch_faults                      0                       # Number of TLB faults due to prefetch
system.cpu.dtb.read_accesses                        0                       # DTB read accesses
system.cpu.dtb.read_hits                            0                       # DTB read hits
system.cpu.dtb.read_misses                          0                       # DTB read misses
system.cpu.dtb.stage2_mmu.stage2_tlb.accesses            0                       # DTB accesses
system.cpu.dtb.stage2_mmu.stage2_tlb.align_faults            0                       # Number of TLB faults due to alignment restrictions
system.cpu.dtb.stage2_mmu.stage2_tlb.domain_faults            0                       # Number of TLB faults due to domain restrictions
system.cpu.dtb.stage2_mmu.stage2_tlb.flush_entries            0                       # Number of entries that have been flushed from TLB
system.cpu.dtb.stage2_mmu.stage2_tlb.flush_tlb            0                       # Number of times complete TLB was flushed
system.cpu.dtb.stage2_mmu.stage2_tlb.flush_tlb_asid            0                       # Number of times TLB was flushed by ASID
system.cpu.dtb.stage2_mmu.stage2_tlb.flush_tlb_mva            0                       # Number of times TLB was flushed by MVA
system.cpu.dtb.stage2_mmu.stage2_tlb.flush_tlb_mva_asid            0                       # Number of times TLB was flushed by MVA & ASID
system.cpu.dtb.stage2_mmu.stage2_tlb.hits            0                       # DTB hits
system.cpu.dtb.stage2_mmu.stage2_tlb.inst_accesses            0                       # ITB inst accesses
system.cpu.dtb.stage2_mmu.stage2_tlb.inst_hits            0                       # ITB inst hits
system.cpu.dtb.stage2_mmu.stage2_tlb.inst_misses            0                       # ITB inst misses
system.cpu.dtb.stage2_mmu.stage2_tlb.misses            0                       # DTB misses
system.cpu.dtb.stage2_mmu.stage2_tlb.perms_faults            0                       # Number of TLB faults due to permissions restrictions
system.cpu.dtb.stage2_mmu.stage2_tlb.prefetch_faults            0                       # Number of TLB faults due to prefetch
system.cpu.dtb.stage2_mmu.stage2_tlb.read_accesses            0                       # DTB read accesses
system.cpu.dtb.stage2_mmu.stage2_tlb.read_hits            0                       # DTB read hits
system.cpu.dtb.stage2_mmu.stage2_tlb.read_misses            0                       # DTB read misses
system.cpu.dtb.stage2_mmu.stage2_tlb.walker.walkRequestOrigin_Requested::Data            0                       # Table walker requests started/completed, data/inst
system.cpu.dtb.stage2_mmu.stage2_tlb.walker.walkRequestOrigin_Requested::Inst            0                       # Table walker requests started/completed, data/inst
system.cpu.dtb.stage2_mmu.stage2_tlb.walker.walkRequestOrigin_Requested::total            0                       # Table walker requests started/completed, data/inst
system.cpu.dtb.stage2_mmu.stage2_tlb.walker.walkRequestOrigin_Completed::Data            0                       # Table walker requests started/completed, data/inst
system.cpu.dtb.stage2_mmu.stage2_tlb.walker.walkRequestOrigin_Completed::Inst            0                       # Table walker requests started/completed, data/inst
system.cpu.dtb.stage2_mmu.stage2_tlb.walker.walkRequestOrigin_Completed::total            0                       # Table walker requests started/completed, data/inst
system.cpu.dtb.stage2_mmu.stage2_tlb.walker.walkRequestOrigin::total            0                       # Table walker requests started/completed, data/inst
system.cpu.dtb.stage2_mmu.stage2_tlb.walker.walks            0                       # Table walker walks requested
system.cpu.dtb.stage2_mmu.stage2_tlb.write_accesses            0                       # DTB write accesses
system.cpu.dtb.stage2_mmu.stage2_tlb.write_hits            0                       # DTB write hits
system.cpu.dtb.stage2_mmu.stage2_tlb.write_misses            0                       # DTB write misses
system.cpu.dtb.walker.walkRequestOrigin_Requested::Data            0                       # Table walker requests started/completed, data/inst
system.cpu.dtb.walker.walkRequestOrigin_Requested::Inst            0                       # Table walker requests started/completed, data/inst
system.cpu.dtb.walker.walkRequestOrigin_Requested::total            0                       # Table walker requests started/completed, data/inst
system.cpu.dtb.walker.walkRequestOrigin_Completed::Data            0                       # Table walker requests started/completed, data/inst
system.cpu.dtb.walker.walkRequestOrigin_Completed::Inst            0                       # Table walker requests started/completed, data/inst
system.cpu.dtb.walker.walkRequestOrigin_Completed::total            0                       # Table walker requests started/completed, data/inst
system.cpu.dtb.walker.walkRequestOrigin::total            0                       # Table walker requests started/completed, data/inst
system.cpu.dtb.walker.walks                         0                       # Table walker walks requested
system.cpu.dtb.write_accesses                       0                       # DTB write accesses
system.cpu.dtb.write_hits                           0                       # DTB write hits
system.cpu.dtb.write_misses                         0                       # DTB write misses
system.cpu.fetch2.amo_instructions                  0                       # Number of memory atomic instructions successfully decoded
system.cpu.fetch2.fp_instructions                   0                       # Number of floating point instructions successfully decoded
system.cpu.fetch2.int_instructions           44895221                       # Number of integer instructions successfully decoded
system.cpu.fetch2.load_instructions           2086486                       # Number of memory load instructions successfully decoded
system.cpu.fetch2.store_instructions           169157                       # Number of memory store instructions successfully decoded
system.cpu.fetch2.vec_instructions                  0                       # Number of SIMD instructions successfully decoded
system.cpu.idleCycles                       299905814                       # Total number of cycles that the object has spent stopped
system.cpu.ipc                               0.193364                       # IPC: instructions per cycle
system.cpu.itb.accesses                             0                       # DTB accesses
system.cpu.itb.align_faults                         0                       # Number of TLB faults due to alignment restrictions
system.cpu.itb.domain_faults                        0                       # Number of TLB faults due to domain restrictions
system.cpu.itb.flush_entries                        0                       # Number of entries that have been flushed from TLB
system.cpu.itb.flush_tlb                            0                       # Number of times complete TLB was flushed
system.cpu.itb.flush_tlb_asid                       0                       # Number of times TLB was flushed by ASID
system.cpu.itb.flush_tlb_mva                        0                       # Number of times TLB was flushed by MVA
system.cpu.itb.flush_tlb_mva_asid                   0                       # Number of times TLB was flushed by MVA & ASID
system.cpu.itb.hits                                 0                       # DTB hits
system.cpu.itb.inst_accesses                        0                       # ITB inst accesses
system.cpu.itb.inst_hits                            0                       # ITB inst hits
system.cpu.itb.inst_misses                          0                       # ITB inst misses
system.cpu.itb.misses                               0                       # DTB misses
system.cpu.itb.perms_faults                         0                       # Number of TLB faults due to permissions restrictions
system.cpu.itb.prefetch_faults                      0                       # Number of TLB faults due to prefetch
system.cpu.itb.read_accesses                        0                       # DTB read accesses
system.cpu.itb.read_hits                            0                       # DTB read hits
system.cpu.itb.read_misses                          0                       # DTB read misses
system.cpu.itb.stage2_mmu.stage2_tlb.accesses            0                       # DTB accesses
system.cpu.itb.stage2_mmu.stage2_tlb.align_faults            0                       # Number of TLB faults due to alignment restrictions
system.cpu.itb.stage2_mmu.stage2_tlb.domain_faults            0                       # Number of TLB faults due to domain restrictions
system.cpu.itb.stage2_mmu.stage2_tlb.flush_entries            0                       # Number of entries that have been flushed from TLB
system.cpu.itb.stage2_mmu.stage2_tlb.flush_tlb            0                       # Number of times complete TLB was flushed
system.cpu.itb.stage2_mmu.stage2_tlb.flush_tlb_asid            0                       # Number of times TLB was flushed by ASID
system.cpu.itb.stage2_mmu.stage2_tlb.flush_tlb_mva            0                       # Number of times TLB was flushed by MVA
system.cpu.itb.stage2_mmu.stage2_tlb.flush_tlb_mva_asid            0                       # Number of times TLB was flushed by MVA & ASID
system.cpu.itb.stage2_mmu.stage2_tlb.hits            0                       # DTB hits
system.cpu.itb.stage2_mmu.stage2_tlb.inst_accesses            0                       # ITB inst accesses
system.cpu.itb.stage2_mmu.stage2_tlb.inst_hits            0                       # ITB inst hits
system.cpu.itb.stage2_mmu.stage2_tlb.inst_misses            0                       # ITB inst misses
system.cpu.itb.stage2_mmu.stage2_tlb.misses            0                       # DTB misses
system.cpu.itb.stage2_mmu.stage2_tlb.perms_faults            0                       # Number of TLB faults due to permissions restrictions
system.cpu.itb.stage2_mmu.stage2_tlb.prefetch_faults            0                       # Number of TLB faults due to prefetch
system.cpu.itb.stage2_mmu.stage2_tlb.read_accesses            0                       # DTB read accesses
system.cpu.itb.stage2_mmu.stage2_tlb.read_hits            0                       # DTB read hits
system.cpu.itb.stage2_mmu.stage2_tlb.read_misses            0                       # DTB read misses
system.cpu.itb.stage2_mmu.stage2_tlb.walker.walkRequestOrigin_Requested::Data            0                       # Table walker requests started/completed, data/inst
system.cpu.itb.stage2_mmu.stage2_tlb.walker.walkRequestOrigin_Requested::Inst            0                       # Table walker requests started/completed, data/inst
system.cpu.itb.stage2_mmu.stage2_tlb.walker.walkRequestOrigin_Requested::total            0                       # Table walker requests started/completed, data/inst
system.cpu.itb.stage2_mmu.stage2_tlb.walker.walkRequestOrigin_Completed::Data            0                       # Table walker requests started/completed, data/inst
system.cpu.itb.stage2_mmu.stage2_tlb.walker.walkRequestOrigin_Completed::Inst            0                       # Table walker requests started/completed, data/inst
system.cpu.itb.stage2_mmu.stage2_tlb.walker.walkRequestOrigin_Completed::total            0                       # Table walker requests started/completed, data/inst
system.cpu.itb.stage2_mmu.stage2_tlb.walker.walkRequestOrigin::total            0                       # Table walker requests started/completed, data/inst
system.cpu.itb.stage2_mmu.stage2_tlb.walker.walks            0                       # Table walker walks requested
system.cpu.itb.stage2_mmu.stage2_tlb.write_accesses            0                       # DTB write accesses
system.cpu.itb.stage2_mmu.stage2_tlb.write_hits            0                       # DTB write hits
system.cpu.itb.stage2_mmu.stage2_tlb.write_misses            0                       # DTB write misses
system.cpu.itb.walker.walkRequestOrigin_Requested::Data            0                       # Table walker requests started/completed, data/inst
system.cpu.itb.walker.walkRequestOrigin_Requested::Inst            0                       # Table walker requests started/completed, data/inst
system.cpu.itb.walker.walkRequestOrigin_Requested::total            0                       # Table walker requests started/completed, data/inst
system.cpu.itb.walker.walkRequestOrigin_Completed::Data            0                       # Table walker requests started/completed, data/inst
system.cpu.itb.walker.walkRequestOrigin_Completed::Inst            0                       # Table walker requests started/completed, data/inst
system.cpu.itb.walker.walkRequestOrigin_Completed::total            0                       # Table walker requests started/completed, data/inst
system.cpu.itb.walker.walkRequestOrigin::total            0                       # Table walker requests started/completed, data/inst
system.cpu.itb.walker.walks                         0                       # Table walker walks requested
system.cpu.itb.write_accesses                       0                       # DTB write accesses
system.cpu.itb.write_hits                           0                       # DTB write hits
system.cpu.itb.write_misses                         0                       # DTB write misses
system.cpu.numCycles                        517160073                       # number of cpu cycles simulated
system.cpu.numFetchSuspends                         0                       # Number of times Execute suspended instruction fetching
system.cpu.numWorkItemsCompleted                    0                       # number of work items this cpu completed
system.cpu.numWorkItemsStarted                      0                       # number of work items this cpu started
system.cpu.op_class_0::No_OpClass                   0      0.00%      0.00% # Class of committed instruction
system.cpu.op_class_0::IntAlu                97640483     53.02%     53.02% # Class of committed instruction
system.cpu.op_class_0::IntMult                 114699      0.06%     53.08% # Class of committed instruction
system.cpu.op_class_0::IntDiv                       0      0.00%     53.08% # Class of committed instruction
system.cpu.op_class_0::FloatAdd                     0      0.00%     53.08% # Class of committed instruction
system.cpu.op_class_0::FloatCmp                     0      0.00%     53.08% # Class of committed instruction
system.cpu.op_class_0::FloatCvt                     0      0.00%     53.08% # Class of committed instruction
system.cpu.op_class_0::FloatMult                    0      0.00%     53.08% # Class of committed instruction
system.cpu.op_class_0::FloatMultAcc                 0      0.00%     53.08% # Class of committed instruction
system.cpu.op_class_0::FloatDiv                     0      0.00%     53.08% # Class of committed instruction
system.cpu.op_class_0::FloatMisc                    0      0.00%     53.08% # Class of committed instruction
system.cpu.op_class_0::FloatSqrt                    0      0.00%     53.08% # Class of committed instruction
system.cpu.op_class_0::SimdAdd                      8      0.00%     53.08% # Class of committed instruction
system.cpu.op_class_0::SimdAddAcc                   0      0.00%     53.08% # Class of committed instruction
system.cpu.op_class_0::SimdAlu                      8      0.00%     53.08% # Class of committed instruction
system.cpu.op_class_0::SimdCmp                      6      0.00%     53.08% # Class of committed instruction
system.cpu.op_class_0::SimdCvt                      0      0.00%     53.08% # Class of committed instruction
system.cpu.op_class_0::SimdMisc                     1      0.00%     53.08% # Class of committed instruction
system.cpu.op_class_0::SimdMult                     0      0.00%     53.08% # Class of committed instruction
system.cpu.op_class_0::SimdMultAcc                  0      0.00%     53.08% # Class of committed instruction
system.cpu.op_class_0::SimdShift                    0      0.00%     53.08% # Class of committed instruction
system.cpu.op_class_0::SimdShiftAcc                 0      0.00%     53.08% # Class of committed instruction
system.cpu.op_class_0::SimdDiv                      0      0.00%     53.08% # Class of committed instruction
system.cpu.op_class_0::SimdSqrt                     0      0.00%     53.08% # Class of committed instruction
system.cpu.op_class_0::SimdFloatAdd                 0      0.00%     53.08% # Class of committed instruction
system.cpu.op_class_0::SimdFloatAlu                 0      0.00%     53.08% # Class of committed instruction
system.cpu.op_class_0::SimdFloatCmp                 0      0.00%     53.08% # Class of committed instruction
system.cpu.op_class_0::SimdFloatCvt                 0      0.00%     53.08% # Class of committed instruction
system.cpu.op_class_0::SimdFloatDiv                 0      0.00%     53.08% # Class of committed instruction
system.cpu.op_class_0::SimdFloatMisc               23      0.00%     53.08% # Class of committed instruction
system.cpu.op_class_0::SimdFloatMult                0      0.00%     53.08% # Class of committed instruction
system.cpu.op_class_0::SimdFloatMultAcc             0      0.00%     53.08% # Class of committed instruction
system.cpu.op_class_0::SimdFloatSqrt                0      0.00%     53.08% # Class of committed instruction
system.cpu.op_class_0::SimdReduceAdd                0      0.00%     53.08% # Class of committed instruction
system.cpu.op_class_0::SimdReduceAlu                0      0.00%     53.08% # Class of committed instruction
system.cpu.op_class_0::SimdReduceCmp                0      0.00%     53.08% # Class of committed instruction
system.cpu.op_class_0::SimdFloatReduceAdd            0      0.00%     53.08% # Class of committed instruction
system.cpu.op_class_0::SimdFloatReduceCmp            0      0.00%     53.08% # Class of committed instruction
system.cpu.op_class_0::SimdAes                      0      0.00%     53.08% # Class of committed instruction
system.cpu.op_class_0::SimdAesMix                   0      0.00%     53.08% # Class of committed instruction
system.cpu.op_class_0::SimdSha1Hash                 0      0.00%     53.08% # Class of committed instruction
system.cpu.op_class_0::SimdSha1Hash2                0      0.00%     53.08% # Class of committed instruction
system.cpu.op_class_0::SimdSha256Hash               0      0.00%     53.08% # Class of committed instruction
system.cpu.op_class_0::SimdSha256Hash2              0      0.00%     53.08% # Class of committed instruction
system.cpu.op_class_0::SimdShaSigma2                0      0.00%     53.08% # Class of committed instruction
system.cpu.op_class_0::SimdShaSigma3                0      0.00%     53.08% # Class of committed instruction
system.cpu.op_class_0::SimdPredAlu                  0      0.00%     53.08% # Class of committed instruction
system.cpu.op_class_0::MemRead                2082677      1.13%     54.21% # Class of committed instruction
system.cpu.op_class_0::MemWrite              84336952     45.79%    100.00% # Class of committed instruction
system.cpu.op_class_0::FloatMemRead                 0      0.00%    100.00% # Class of committed instruction
system.cpu.op_class_0::FloatMemWrite                0      0.00%    100.00% # Class of committed instruction
system.cpu.op_class_0::IprAccess                    0      0.00%    100.00% # Class of committed instruction
system.cpu.op_class_0::InstPrefetch                 0      0.00%    100.00% # Class of committed instruction
system.cpu.op_class_0::total                184174857                       # Class of committed instruction
system.cpu.tickCycles                       217254259                       # Number of cycles that the object actually ticked
system.cpu.workload.numSyscalls                    18                       # Number of system calls
system.membus.snoop_filter.hit_multi_requests            0                       # Number of requests hitting in the snoop filter with multiple (>1) holders of the requested data.
system.membus.snoop_filter.hit_multi_snoops            0                       # Number of snoops hitting in the snoop filter with multiple (>1) holders of the requested data.
system.membus.snoop_filter.hit_single_requests      1299785                       # Number of requests hitting in the snoop filter with a single holder of the requested data.
system.membus.snoop_filter.hit_single_snoops            0                       # Number of snoops hitting in the snoop filter with a single holder of the requested data.
system.membus.snoop_filter.tot_requests       2616072                       # Total number of requests made to the snoop filter.
system.membus.snoop_filter.tot_snoops               0                       # Total number of snoops made to the snoop filter.
system.tol2bus.snoop_filter.hit_multi_requests           57                       # Number of requests hitting in the snoop filter with multiple (>1) holders of the requested data.
system.tol2bus.snoop_filter.hit_multi_snoops            0                       # Number of snoops hitting in the snoop filter with multiple (>1) holders of the requested data.
system.tol2bus.snoop_filter.hit_single_requests      1316290                       # Number of requests hitting in the snoop filter with a single holder of the requested data.
system.tol2bus.snoop_filter.hit_single_snoops          207                       # Number of snoops hitting in the snoop filter with a single holder of the requested data.
system.tol2bus.snoop_filter.tot_requests      2632771                       # Total number of requests made to the snoop filter.
system.tol2bus.snoop_filter.tot_snoops            207                       # Total number of snoops made to the snoop filter.
system.membus.pwrStateResidencyTicks::UNDEFINED 258580036500                       # Cumulative time (in ticks) in various power states
system.membus.trans_dist::ReadResp                419                       # Transaction distribution
system.membus.trans_dist::WritebackDirty      1299513                       # Transaction distribution
system.membus.trans_dist::CleanEvict              263                       # Transaction distribution
system.membus.trans_dist::ReadExReq           1315877                       # Transaction distribution
system.membus.trans_dist::ReadExResp          1315877                       # Transaction distribution
system.membus.trans_dist::ReadSharedReq           419                       # Transaction distribution
system.membus.pkt_count_system.l2.mem_side::system.mem_ctrls.port      3932368                       # Packet count per connected master and slave (bytes)
system.membus.pkt_count::total                3932368                       # Packet count per connected master and slave (bytes)
system.membus.pkt_size_system.l2.mem_side::system.mem_ctrls.port    669647104                       # Cumulative packet size per connected master and slave (bytes)
system.membus.pkt_size::total               669647104                       # Cumulative packet size per connected master and slave (bytes)
system.membus.snoops                                0                       # Total snoops (count)
system.membus.snoopTraffic                          0                       # Total snoop traffic (bytes)
system.membus.snoop_fanout::samples           1316296                       # Request fanout histogram
system.membus.snoop_fanout::mean                    0                       # Request fanout histogram
system.membus.snoop_fanout::stdev                   0                       # Request fanout histogram
system.membus.snoop_fanout::underflows              0      0.00%      0.00% # Request fanout histogram
system.membus.snoop_fanout::0                 1316296    100.00%    100.00% # Request fanout histogram
system.membus.snoop_fanout::1                       0      0.00%    100.00% # Request fanout histogram
system.membus.snoop_fanout::overflows               0      0.00%    100.00% # Request fanout histogram
system.membus.snoop_fanout::min_value               0                       # Request fanout histogram
system.membus.snoop_fanout::max_value               0                       # Request fanout histogram
system.membus.snoop_fanout::total             1316296                       # Request fanout histogram
system.membus.respLayer1.occupancy        22745960500                       # Layer occupancy (ticks)
system.membus.respLayer1.utilization              8.8                       # Layer utilization (%)
system.membus.reqLayer0.occupancy         23408526500                       # Layer occupancy (ticks)
system.membus.reqLayer0.utilization               9.1                       # Layer utilization (%)
system.tol2bus.pwrStateResidencyTicks::UNDEFINED 258580036500                       # Cumulative time (in ticks) in various power states
system.tol2bus.trans_dist::ReadResp               582                       # Transaction distribution
system.tol2bus.trans_dist::WritebackDirty      2615393                       # Transaction distribution
system.tol2bus.trans_dist::WritebackClean          235                       # Transaction distribution
system.tol2bus.trans_dist::CleanEvict             645                       # Transaction distribution
system.tol2bus.trans_dist::ReadExReq          1315899                       # Transaction distribution
system.tol2bus.trans_dist::ReadExResp         1315899                       # Transaction distribution
system.tol2bus.trans_dist::ReadCleanReq           362                       # Transaction distribution
system.tol2bus.trans_dist::ReadSharedReq          220                       # Transaction distribution
system.tol2bus.pkt_count_system.cpu.icache.mem_side::system.l2.cpu_side          959                       # Packet count per connected master and slave (bytes)
system.tol2bus.pkt_count_system.cpu.dcache.mem_side::system.l2.cpu_side      3948293                       # Packet count per connected master and slave (bytes)
system.tol2bus.pkt_count::total               3949252                       # Packet count per connected master and slave (bytes)
system.tol2bus.pkt_size_system.cpu.icache.mem_side::system.l2.cpu_side       152832                       # Cumulative packet size per connected master and slave (bytes)
system.tol2bus.pkt_size_system.cpu.dcache.mem_side::system.l2.cpu_side    673791744                       # Cumulative packet size per connected master and slave (bytes)
system.tol2bus.pkt_size::total              673944576                       # Cumulative packet size per connected master and slave (bytes)
system.tol2bus.snoops                         1299983                       # Total snoops (count)
system.tol2bus.snoopTraffic                 332675328                       # Total snoop traffic (bytes)
system.tol2bus.snoop_fanout::samples          2616464                       # Request fanout histogram
system.tol2bus.snoop_fanout::mean            0.000101                       # Request fanout histogram
system.tol2bus.snoop_fanout::stdev           0.010044                       # Request fanout histogram
system.tol2bus.snoop_fanout::underflows             0      0.00%      0.00% # Request fanout histogram
system.tol2bus.snoop_fanout::0                2616200     99.99%     99.99% # Request fanout histogram
system.tol2bus.snoop_fanout::1                    264      0.01%    100.00% # Request fanout histogram
system.tol2bus.snoop_fanout::2                      0      0.00%    100.00% # Request fanout histogram
system.tol2bus.snoop_fanout::overflows              0      0.00%    100.00% # Request fanout histogram
system.tol2bus.snoop_fanout::min_value              0                       # Request fanout histogram
system.tol2bus.snoop_fanout::max_value              1                       # Request fanout histogram
system.tol2bus.snoop_fanout::total            2616464                       # Request fanout histogram
system.tol2bus.reqLayer0.occupancy         6580845500                       # Layer occupancy (ticks)
system.tol2bus.reqLayer0.utilization              2.5                       # Layer utilization (%)
system.tol2bus.respLayer1.occupancy        5922538993                       # Layer occupancy (ticks)
system.tol2bus.respLayer1.utilization             2.3                       # Layer utilization (%)
system.tol2bus.respLayer0.occupancy           1629000                       # Layer occupancy (ticks)
system.tol2bus.respLayer0.utilization             0.0                       # Layer utilization (%)
system.voltage_domain.voltage                       1                       # Voltage in Volts
system.clk_domain.clock                          1000                       # Clock period in ticks
system.l2.pwrStateResidencyTicks::UNDEFINED 258580036500                       # Cumulative time (in ticks) in various power states
system.l2.demand_hits::.cpu.inst                   91                       # number of demand (read+write) hits
system.l2.demand_hits::.cpu.data                   87                       # number of demand (read+write) hits
system.l2.demand_hits::total                      178                       # number of demand (read+write) hits
system.l2.overall_hits::.cpu.inst                  91                       # number of overall hits
system.l2.overall_hits::.cpu.data                  87                       # number of overall hits
system.l2.overall_hits::total                     178                       # number of overall hits
system.l2.demand_misses::.cpu.inst                271                       # number of demand (read+write) misses
system.l2.demand_misses::.cpu.data            1316032                       # number of demand (read+write) misses
system.l2.demand_misses::total                1316303                       # number of demand (read+write) misses
system.l2.overall_misses::.cpu.inst               271                       # number of overall misses
system.l2.overall_misses::.cpu.data           1316032                       # number of overall misses
system.l2.overall_misses::total               1316303                       # number of overall misses
system.l2.demand_miss_latency::.cpu.inst     28677500                       # number of demand (read+write) miss cycles
system.l2.demand_miss_latency::.cpu.data 155082818000                       # number of demand (read+write) miss cycles
system.l2.demand_miss_latency::total     155111495500                       # number of demand (read+write) miss cycles
system.l2.overall_miss_latency::.cpu.inst     28677500                       # number of overall miss cycles
system.l2.overall_miss_latency::.cpu.data 155082818000                       # number of overall miss cycles
system.l2.overall_miss_latency::total    155111495500                       # number of overall miss cycles
system.l2.demand_accesses::.cpu.inst              362                       # number of demand (read+write) accesses
system.l2.demand_accesses::.cpu.data          1316119                       # number of demand (read+write) accesses
system.l2.demand_accesses::total              1316481                       # number of demand (read+write) accesses
system.l2.overall_accesses::.cpu.inst             362                       # number of overall (read+write) accesses
system.l2.overall_accesses::.cpu.data         1316119                       # number of overall (read+write) accesses
system.l2.overall_accesses::total             1316481                       # number of overall (read+write) accesses
system.l2.demand_miss_rate::.cpu.inst        0.748619                       # miss rate for demand accesses
system.l2.demand_miss_rate::.cpu.data        0.999934                       # miss rate for demand accesses
system.l2.demand_miss_rate::total            0.999865                       # miss rate for demand accesses
system.l2.overall_miss_rate::.cpu.inst       0.748619                       # miss rate for overall accesses
system.l2.overall_miss_rate::.cpu.data       0.999934                       # miss rate for overall accesses
system.l2.overall_miss_rate::total           0.999865                       # miss rate for overall accesses
system.l2.demand_avg_miss_latency::.cpu.inst 105821.033210                       # average overall miss latency
system.l2.demand_avg_miss_latency::.cpu.data 117841.221186                       # average overall miss latency
system.l2.demand_avg_miss_latency::total 117838.746474                       # average overall miss latency
system.l2.overall_avg_miss_latency::.cpu.inst 105821.033210                       # average overall miss latency
system.l2.overall_avg_miss_latency::.cpu.data 117841.221186                       # average overall miss latency
system.l2.overall_avg_miss_latency::total 117838.746474                       # average overall miss latency
system.l2.blocked_cycles::no_mshrs                  0                       # number of cycles access was blocked
system.l2.blocked_cycles::no_targets                0                       # number of cycles access was blocked
system.l2.blocked::no_mshrs                         0                       # number of cycles access was blocked
system.l2.blocked::no_targets                       0                       # number of cycles access was blocked
system.l2.avg_blocked_cycles::no_mshrs            nan                       # average number of cycles each access was blocked
system.l2.avg_blocked_cycles::no_targets          nan                       # average number of cycles each access was blocked
system.l2.writebacks::.writebacks             1299513                       # number of writebacks
system.l2.writebacks::total                   1299513                       # number of writebacks
system.l2.demand_mshr_hits::.cpu.data               7                       # number of demand (read+write) MSHR hits
system.l2.demand_mshr_hits::total                   7                       # number of demand (read+write) MSHR hits
system.l2.overall_mshr_hits::.cpu.data              7                       # number of overall MSHR hits
system.l2.overall_mshr_hits::total                  7                       # number of overall MSHR hits
system.l2.demand_mshr_misses::.cpu.inst           271                       # number of demand (read+write) MSHR misses
system.l2.demand_mshr_misses::.cpu.data       1316025                       # number of demand (read+write) MSHR misses
system.l2.demand_mshr_misses::total           1316296                       # number of demand (read+write) MSHR misses
system.l2.overall_mshr_misses::.cpu.inst          271                       # number of overall MSHR misses
system.l2.overall_mshr_misses::.cpu.data      1316025                       # number of overall MSHR misses
system.l2.overall_mshr_misses::total          1316296                       # number of overall MSHR misses
system.l2.demand_mshr_miss_latency::.cpu.inst     25967500                       # number of demand (read+write) MSHR miss cycles
system.l2.demand_mshr_miss_latency::.cpu.data 141921992000                       # number of demand (read+write) MSHR miss cycles
system.l2.demand_mshr_miss_latency::total 141947959500                       # number of demand (read+write) MSHR miss cycles
system.l2.overall_mshr_miss_latency::.cpu.inst     25967500                       # number of overall MSHR miss cycles
system.l2.overall_mshr_miss_latency::.cpu.data 141921992000                       # number of overall MSHR miss cycles
system.l2.overall_mshr_miss_latency::total 141947959500                       # number of overall MSHR miss cycles
system.l2.demand_mshr_miss_rate::.cpu.inst     0.748619                       # mshr miss rate for demand accesses
system.l2.demand_mshr_miss_rate::.cpu.data     0.999929                       # mshr miss rate for demand accesses
system.l2.demand_mshr_miss_rate::total       0.999859                       # mshr miss rate for demand accesses
system.l2.overall_mshr_miss_rate::.cpu.inst     0.748619                       # mshr miss rate for overall accesses
system.l2.overall_mshr_miss_rate::.cpu.data     0.999929                       # mshr miss rate for overall accesses
system.l2.overall_mshr_miss_rate::total      0.999859                       # mshr miss rate for overall accesses
system.l2.demand_avg_mshr_miss_latency::.cpu.inst 95821.033210                       # average overall mshr miss latency
system.l2.demand_avg_mshr_miss_latency::.cpu.data 107841.410308                       # average overall mshr miss latency
system.l2.demand_avg_mshr_miss_latency::total 107838.935543                       # average overall mshr miss latency
system.l2.overall_avg_mshr_miss_latency::.cpu.inst 95821.033210                       # average overall mshr miss latency
system.l2.overall_avg_mshr_miss_latency::.cpu.data 107841.410308                       # average overall mshr miss latency
system.l2.overall_avg_mshr_miss_latency::total 107838.935543                       # average overall mshr miss latency
system.l2.replacements                        1299983                       # number of replacements
system.l2.WritebackDirty_hits::.writebacks      1315880                       # number of WritebackDirty hits
system.l2.WritebackDirty_hits::total          1315880                       # number of WritebackDirty hits
system.l2.WritebackDirty_accesses::.writebacks      1315880                       # number of WritebackDirty accesses(hits+misses)
system.l2.WritebackDirty_accesses::total      1315880                       # number of WritebackDirty accesses(hits+misses)
system.l2.WritebackClean_hits::.writebacks          226                       # number of WritebackClean hits
system.l2.WritebackClean_hits::total              226                       # number of WritebackClean hits
system.l2.WritebackClean_accesses::.writebacks          226                       # number of WritebackClean accesses(hits+misses)
system.l2.WritebackClean_accesses::total          226                       # number of WritebackClean accesses(hits+misses)
system.l2.ReadExReq_hits::.cpu.data                22                       # number of ReadExReq hits
system.l2.ReadExReq_hits::total                    22                       # number of ReadExReq hits
system.l2.ReadExReq_misses::.cpu.data         1315877                       # number of ReadExReq misses
system.l2.ReadExReq_misses::total             1315877                       # number of ReadExReq misses
system.l2.ReadExReq_miss_latency::.cpu.data 155064997000                       # number of ReadExReq miss cycles
system.l2.ReadExReq_miss_latency::total  155064997000                       # number of ReadExReq miss cycles
system.l2.ReadExReq_accesses::.cpu.data       1315899                       # number of ReadExReq accesses(hits+misses)
system.l2.ReadExReq_accesses::total           1315899                       # number of ReadExReq accesses(hits+misses)
system.l2.ReadExReq_miss_rate::.cpu.data     0.999983                       # miss rate for ReadExReq accesses
system.l2.ReadExReq_miss_rate::total         0.999983                       # miss rate for ReadExReq accesses
system.l2.ReadExReq_avg_miss_latency::.cpu.data 117841.558900                       # average ReadExReq miss latency
system.l2.ReadExReq_avg_miss_latency::total 117841.558900                       # average ReadExReq miss latency
system.l2.ReadExReq_mshr_misses::.cpu.data      1315877                       # number of ReadExReq MSHR misses
system.l2.ReadExReq_mshr_misses::total        1315877                       # number of ReadExReq MSHR misses
system.l2.ReadExReq_mshr_miss_latency::.cpu.data 141906227000                       # number of ReadExReq MSHR miss cycles
system.l2.ReadExReq_mshr_miss_latency::total 141906227000                       # number of ReadExReq MSHR miss cycles
system.l2.ReadExReq_mshr_miss_rate::.cpu.data     0.999983                       # mshr miss rate for ReadExReq accesses
system.l2.ReadExReq_mshr_miss_rate::total     0.999983                       # mshr miss rate for ReadExReq accesses
system.l2.ReadExReq_avg_mshr_miss_latency::.cpu.data 107841.558900                       # average ReadExReq mshr miss latency
system.l2.ReadExReq_avg_mshr_miss_latency::total 107841.558900                       # average ReadExReq mshr miss latency
system.l2.ReadCleanReq_hits::.cpu.inst             91                       # number of ReadCleanReq hits
system.l2.ReadCleanReq_hits::total                 91                       # number of ReadCleanReq hits
system.l2.ReadCleanReq_misses::.cpu.inst          271                       # number of ReadCleanReq misses
system.l2.ReadCleanReq_misses::total              271                       # number of ReadCleanReq misses
system.l2.ReadCleanReq_miss_latency::.cpu.inst     28677500                       # number of ReadCleanReq miss cycles
system.l2.ReadCleanReq_miss_latency::total     28677500                       # number of ReadCleanReq miss cycles
system.l2.ReadCleanReq_accesses::.cpu.inst          362                       # number of ReadCleanReq accesses(hits+misses)
system.l2.ReadCleanReq_accesses::total            362                       # number of ReadCleanReq accesses(hits+misses)
system.l2.ReadCleanReq_miss_rate::.cpu.inst     0.748619                       # miss rate for ReadCleanReq accesses
system.l2.ReadCleanReq_miss_rate::total      0.748619                       # miss rate for ReadCleanReq accesses
system.l2.ReadCleanReq_avg_miss_latency::.cpu.inst 105821.033210                       # average ReadCleanReq miss latency
system.l2.ReadCleanReq_avg_miss_latency::total 105821.033210                       # average ReadCleanReq miss latency
system.l2.ReadCleanReq_mshr_misses::.cpu.inst          271                       # number of ReadCleanReq MSHR misses
system.l2.ReadCleanReq_mshr_misses::total          271                       # number of ReadCleanReq MSHR misses
system.l2.ReadCleanReq_mshr_miss_latency::.cpu.inst     25967500                       # number of ReadCleanReq MSHR miss cycles
system.l2.ReadCleanReq_mshr_miss_latency::total     25967500                       # number of ReadCleanReq MSHR miss cycles
system.l2.ReadCleanReq_mshr_miss_rate::.cpu.inst     0.748619                       # mshr miss rate for ReadCleanReq accesses
system.l2.ReadCleanReq_mshr_miss_rate::total     0.748619                       # mshr miss rate for ReadCleanReq accesses
system.l2.ReadCleanReq_avg_mshr_miss_latency::.cpu.inst 95821.033210                       # average ReadCleanReq mshr miss latency
system.l2.ReadCleanReq_avg_mshr_miss_latency::total 95821.033210                       # average ReadCleanReq mshr miss latency
system.l2.ReadSharedReq_hits::.cpu.data            65                       # number of ReadSharedReq hits
system.l2.ReadSharedReq_hits::total                65                       # number of ReadSharedReq hits
system.l2.ReadSharedReq_misses::.cpu.data          155                       # number of ReadSharedReq misses
system.l2.ReadSharedReq_misses::total             155                       # number of ReadSharedReq misses
system.l2.ReadSharedReq_miss_latency::.cpu.data     17821000                       # number of ReadSharedReq miss cycles
system.l2.ReadSharedReq_miss_latency::total     17821000                       # number of ReadSharedReq miss cycles
system.l2.ReadSharedReq_accesses::.cpu.data          220                       # number of ReadSharedReq accesses(hits+misses)
system.l2.ReadSharedReq_accesses::total           220                       # number of ReadSharedReq accesses(hits+misses)
system.l2.ReadSharedReq_miss_rate::.cpu.data     0.704545                       # miss rate for ReadSharedReq accesses
system.l2.ReadSharedReq_miss_rate::total     0.704545                       # miss rate for ReadSharedReq accesses
system.l2.ReadSharedReq_avg_miss_latency::.cpu.data 114974.193548                       # average ReadSharedReq miss latency
system.l2.ReadSharedReq_avg_miss_latency::total 114974.193548                       # average ReadSharedReq miss latency
system.l2.ReadSharedReq_mshr_hits::.cpu.data            7                       # number of ReadSharedReq MSHR hits
system.l2.ReadSharedReq_mshr_hits::total            7                       # number of ReadSharedReq MSHR hits
system.l2.ReadSharedReq_mshr_misses::.cpu.data          148                       # number of ReadSharedReq MSHR misses
system.l2.ReadSharedReq_mshr_misses::total          148                       # number of ReadSharedReq MSHR misses
system.l2.ReadSharedReq_mshr_miss_latency::.cpu.data     15765000                       # number of ReadSharedReq MSHR miss cycles
system.l2.ReadSharedReq_mshr_miss_latency::total     15765000                       # number of ReadSharedReq MSHR miss cycles
system.l2.ReadSharedReq_mshr_miss_rate::.cpu.data     0.672727                       # mshr miss rate for ReadSharedReq accesses
system.l2.ReadSharedReq_mshr_miss_rate::total     0.672727                       # mshr miss rate for ReadSharedReq accesses
system.l2.ReadSharedReq_avg_mshr_miss_latency::.cpu.data 106520.270270                       # average ReadSharedReq mshr miss latency
system.l2.ReadSharedReq_avg_mshr_miss_latency::total 106520.270270                       # average ReadSharedReq mshr miss latency
system.l2.tags.pwrStateResidencyTicks::UNDEFINED 258580036500                       # Cumulative time (in ticks) in various power states
system.l2.tags.tagsinuse                 16123.804106                       # Cycle average of tags in use
system.l2.tags.total_refs                     2632707                       # Total number of references to valid blocks.
system.l2.tags.sampled_refs                   1316367                       # Sample count of references to valid blocks.
system.l2.tags.avg_refs                      1.999979                       # Average number of references to valid blocks.
system.l2.tags.warmup_cycle                     92000                       # Cycle when the warmup percentage was hit.
system.l2.tags.occ_blocks::.writebacks       0.842314                       # Average occupied blocks per requestor
system.l2.tags.occ_blocks::.cpu.inst         4.823561                       # Average occupied blocks per requestor
system.l2.tags.occ_blocks::.cpu.data     16118.138232                       # Average occupied blocks per requestor
system.l2.tags.occ_percent::.writebacks      0.000051                       # Average percentage of cache occupancy
system.l2.tags.occ_percent::.cpu.inst        0.000294                       # Average percentage of cache occupancy
system.l2.tags.occ_percent::.cpu.data        0.983773                       # Average percentage of cache occupancy
system.l2.tags.occ_percent::total            0.984119                       # Average percentage of cache occupancy
system.l2.tags.occ_task_id_blocks::1024         16384                       # Occupied blocks per task id
system.l2.tags.age_task_id_blocks_1024::0           53                       # Occupied blocks per task id
system.l2.tags.age_task_id_blocks_1024::1          461                       # Occupied blocks per task id
system.l2.tags.age_task_id_blocks_1024::2         4625                       # Occupied blocks per task id
system.l2.tags.age_task_id_blocks_1024::3        11245                       # Occupied blocks per task id
system.l2.tags.occ_task_id_percent::1024            1                       # Percentage of cache occupancy per task id
system.l2.tags.tag_accesses                   6581795                       # Number of tag accesses
system.l2.tags.data_accesses                  6581795                       # Number of data accesses
system.cpu_voltage_domain.voltage                   1                       # Voltage in Volts
system.mem_ctrls.pwrStateResidencyTicks::UNDEFINED 258580036500                       # Cumulative time (in ticks) in various power states
system.mem_ctrls.bytes_read::.cpu.inst          69376                       # Number of bytes read from this memory
system.mem_ctrls.bytes_read::.cpu.data      336902400                       # Number of bytes read from this memory
system.mem_ctrls.bytes_read::total          336971776                       # Number of bytes read from this memory
system.mem_ctrls.bytes_inst_read::.cpu.inst        69376                       # Number of instructions bytes read from this memory
system.mem_ctrls.bytes_inst_read::total         69376                       # Number of instructions bytes read from this memory
system.mem_ctrls.bytes_written::.writebacks    332675328                       # Number of bytes written to this memory
system.mem_ctrls.bytes_written::total       332675328                       # Number of bytes written to this memory
system.mem_ctrls.num_reads::.cpu.inst             271                       # Number of read requests responded to by this memory
system.mem_ctrls.num_reads::.cpu.data         1316025                       # Number of read requests responded to by this memory
system.mem_ctrls.num_reads::total             1316296                       # Number of read requests responded to by this memory
system.mem_ctrls.num_writes::.writebacks      1299513                       # Number of write requests responded to by this memory
system.mem_ctrls.num_writes::total            1299513                       # Number of write requests responded to by this memory
system.mem_ctrls.bw_read::.cpu.inst            268296                       # Total read bandwidth from this memory (bytes/s)
system.mem_ctrls.bw_read::.cpu.data        1302894085                       # Total read bandwidth from this memory (bytes/s)
system.mem_ctrls.bw_read::total            1303162381                       # Total read bandwidth from this memory (bytes/s)
system.mem_ctrls.bw_inst_read::.cpu.inst       268296                       # Instruction read bandwidth from this memory (bytes/s)
system.mem_ctrls.bw_inst_read::total           268296                       # Instruction read bandwidth from this memory (bytes/s)
system.mem_ctrls.bw_write::.writebacks     1286546837                       # Write bandwidth from this memory (bytes/s)
system.mem_ctrls.bw_write::total           1286546837                       # Write bandwidth from this memory (bytes/s)
system.mem_ctrls.bw_total::.writebacks     1286546837                       # Total bandwidth to/from this memory (bytes/s)
system.mem_ctrls.bw_total::.cpu.inst           268296                       # Total bandwidth to/from this memory (bytes/s)
system.mem_ctrls.bw_total::.cpu.data       1302894085                       # Total bandwidth to/from this memory (bytes/s)
system.mem_ctrls.bw_total::total           2589709218                       # Total bandwidth to/from this memory (bytes/s)
system.mem_ctrls.avgPriority_.writebacks::samples   5198052.00                       # Average QoS priority value for accepted requests
system.mem_ctrls.avgPriority_.cpu.inst::samples      1084.00                       # Average QoS priority value for accepted requests
system.mem_ctrls.avgPriority_.cpu.data::samples   5264100.00                       # Average QoS priority value for accepted requests
system.mem_ctrls.priorityMinLatency      0.000000018750                       # per QoS priority minimum request to response latency (s)
system.mem_ctrls.priorityMaxLatency      0.001698386750                       # per QoS priority maximum request to response latency (s)
system.mem_ctrls.numReadWriteTurnArounds       284263                       # Number of turnarounds from READ to WRITE
system.mem_ctrls.numWriteReadTurnArounds       284264                       # Number of turnarounds from WRITE to READ
system.mem_ctrls.numStayReadState             7677086                       # Number of times bus staying in READ state
system.mem_ctrls.numStayWriteState            4935314                       # Number of times bus staying in WRITE state
system.mem_ctrls.readReqs                     1316296                       # Number of read requests accepted
system.mem_ctrls.writeReqs                    1299513                       # Number of write requests accepted
system.mem_ctrls.readBursts                   5265184                       # Number of DRAM read bursts, including those serviced by the write queue
system.mem_ctrls.writeBursts                  5198052                       # Number of DRAM write bursts, including those merged in the write queue
system.mem_ctrls.servicedByWrQ                      0                       # Number of DRAM read bursts serviced by the write queue
system.mem_ctrls.mergedWrBursts                     0                       # Number of DRAM write bursts merged with an existing one
system.mem_ctrls.neitherReadNorWriteReqs            0                       # Number of requests that are neither read nor write
system.mem_ctrls.perBankRdBursts::0            329160                       # Per bank write bursts
system.mem_ctrls.perBankRdBursts::1            329176                       # Per bank write bursts
system.mem_ctrls.perBankRdBursts::2            329216                       # Per bank write bursts
system.mem_ctrls.perBankRdBursts::3            329148                       # Per bank write bursts
system.mem_ctrls.perBankRdBursts::4            329060                       # Per bank write bursts
system.mem_ctrls.perBankRdBursts::5            329136                       # Per bank write bursts
system.mem_ctrls.perBankRdBursts::6            329164                       # Per bank write bursts
system.mem_ctrls.perBankRdBursts::7            328984                       # Per bank write bursts
system.mem_ctrls.perBankRdBursts::8            328924                       # Per bank write bursts
system.mem_ctrls.perBankRdBursts::9            328924                       # Per bank write bursts
system.mem_ctrls.perBankRdBursts::10           328892                       # Per bank write bursts
system.mem_ctrls.perBankRdBursts::11           329120                       # Per bank write bursts
system.mem_ctrls.perBankRdBursts::12           329124                       # Per bank write bursts
system.mem_ctrls.perBankRdBursts::13           329104                       # Per bank write bursts
system.mem_ctrls.perBankRdBursts::14           329120                       # Per bank write bursts
system.mem_ctrls.perBankRdBursts::15           328932                       # Per bank write bursts
system.mem_ctrls.perBankWrBursts::0            324848                       # Per bank write bursts
system.mem_ctrls.perBankWrBursts::1            324933                       # Per bank write bursts
system.mem_ctrls.perBankWrBursts::2            325036                       # Per bank write bursts
system.mem_ctrls.perBankWrBursts::3            324988                       # Per bank write bursts
system.mem_ctrls.perBankWrBursts::4            324944                       # Per bank write bursts
system.mem_ctrls.perBankWrBursts::5            324960                       # Per bank write bursts
system.mem_ctrls.perBankWrBursts::6            324968                       # Per bank write bursts
system.mem_ctrls.perBankWrBursts::7            324848                       # Per bank write bursts
system.mem_ctrls.perBankWrBursts::8            324736                       # Per bank write bursts
system.mem_ctrls.perBankWrBursts::9            324736                       # Per bank write bursts
system.mem_ctrls.perBankWrBursts::10           324672                       # Per bank write bursts
system.mem_ctrls.perBankWrBursts::11           324920                       # Per bank write bursts
system.mem_ctrls.perBankWrBursts::12           324912                       # Per bank write bursts
system.mem_ctrls.perBankWrBursts::13           324892                       # Per bank write bursts
system.mem_ctrls.perBankWrBursts::14           324848                       # Per bank write bursts
system.mem_ctrls.perBankWrBursts::15           324780                       # Per bank write bursts
system.mem_ctrls.avgRdQLen                       4.04                       # Average read queue length when enqueuing
system.mem_ctrls.avgWrQLen                      27.63                       # Average write queue length when enqueuing
system.mem_ctrls.totQLat                 214854599500                       # Total ticks spent queuing
system.mem_ctrls.totBusLat                26325920000                       # Total ticks spent in databus transfers
system.mem_ctrls.totMemAccLat            313576799500                       # Total ticks spent from burst creation until serviced by the DRAM
system.mem_ctrls.avgQLat                     40806.66                       # Average queueing delay per DRAM burst
system.mem_ctrls.avgBusLat                    5000.00                       # Average bus latency per DRAM burst
system.mem_ctrls.avgMemAccLat                59556.66                       # Average memory access latency per DRAM burst
system.mem_ctrls.numRdRetry                         0                       # Number of times read queue was full causing retry
system.mem_ctrls.numWrRetry                         0                       # Number of times write queue was full causing retry
system.mem_ctrls.readRowHits                  4762899                       # Number of row buffer hits during reads
system.mem_ctrls.writeRowHits                 4626756                       # Number of row buffer hits during writes
system.mem_ctrls.readRowHitRate                 90.46                       # Row buffer hit rate for reads
system.mem_ctrls.writeRowHitRate                89.01                       # Row buffer hit rate for writes
system.mem_ctrls.readPktSize::0                     0                       # Read request sizes (log2)
system.mem_ctrls.readPktSize::1                     0                       # Read request sizes (log2)
system.mem_ctrls.readPktSize::2                     0                       # Read request sizes (log2)
system.mem_ctrls.readPktSize::3                     0                       # Read request sizes (log2)
system.mem_ctrls.readPktSize::4                     0                       # Read request sizes (log2)
system.mem_ctrls.readPktSize::5                     0                       # Read request sizes (log2)
system.mem_ctrls.readPktSize::6               5265184                       # Read request sizes (log2)
system.mem_ctrls.writePktSize::0                    0                       # Write request sizes (log2)
system.mem_ctrls.writePktSize::1                    0                       # Write request sizes (log2)
system.mem_ctrls.writePktSize::2                    0                       # Write request sizes (log2)
system.mem_ctrls.writePktSize::3                    0                       # Write request sizes (log2)
system.mem_ctrls.writePktSize::4                    0                       # Write request sizes (log2)
system.mem_ctrls.writePktSize::5                    0                       # Write request sizes (log2)
system.mem_ctrls.writePktSize::6              5198052                       # Write request sizes (log2)
system.mem_ctrls.rdQLenPdf::0                 1315988                       # What read queue length does an incoming req see
system.mem_ctrls.rdQLenPdf::1                 1315989                       # What read queue length does an incoming req see
system.mem_ctrls.rdQLenPdf::2                 1315990                       # What read queue length does an incoming req see
system.mem_ctrls.rdQLenPdf::3                 1315994                       # What read queue length does an incoming req see
system.mem_ctrls.rdQLenPdf::4                     303                       # What read queue length does an incoming req see
system.mem_ctrls.rdQLenPdf::5                     302                       # What read queue length does an incoming req see
system.mem_ctrls.rdQLenPdf::6                     301                       # What read queue length does an incoming req see
system.mem_ctrls.rdQLenPdf::7                     298                       # What read queue length does an incoming req see
system.mem_ctrls.rdQLenPdf::8                       5                       # What read queue length does an incoming req see
system.mem_ctrls.rdQLenPdf::9                       5                       # What read queue length does an incoming req see
system.mem_ctrls.rdQLenPdf::10                      5                       # What read queue length does an incoming req see
system.mem_ctrls.rdQLenPdf::11                      4                       # What read queue length does an incoming req see
system.mem_ctrls.rdQLenPdf::12                      0                       # What read queue length does an incoming req see
system.mem_ctrls.rdQLenPdf::13                      0                       # What read queue length does an incoming req see
system.mem_ctrls.rdQLenPdf::14                      0                       # What read queue length does an incoming req see
system.mem_ctrls.rdQLenPdf::15                      0                       # What read queue length does an incoming req see
system.mem_ctrls.rdQLenPdf::16                      0                       # What read queue length does an incoming req see
system.mem_ctrls.rdQLenPdf::17                      0                       # What read queue length does an incoming req see
system.mem_ctrls.rdQLenPdf::18                      0                       # What read queue length does an incoming req see
system.mem_ctrls.rdQLenPdf::19                      0                       # What read queue length does an incoming req see
system.mem_ctrls.rdQLenPdf::20                      0                       # What read queue length does an incoming req see
system.mem_ctrls.rdQLenPdf::21                      0                       # What read queue length does an incoming req see
system.mem_ctrls.rdQLenPdf::22                      0                       # What read queue length does an incoming req see
system.mem_ctrls.rdQLenPdf::23                      0                       # What read queue length does an incoming req see
system.mem_ctrls.rdQLenPdf::24                      0                       # What read queue length does an incoming req see
system.mem_ctrls.rdQLenPdf::25                      0                       # What read queue length does an incoming req see
system.mem_ctrls.rdQLenPdf::26                      0                       # What read queue length does an incoming req see
system.mem_ctrls.rdQLenPdf::27                      0                       # What read queue length does an incoming req see
system.mem_ctrls.rdQLenPdf::28                      0                       # What read queue length does an incoming req see
system.mem_ctrls.rdQLenPdf::29                      0                       # What read queue length does an incoming req see
system.mem_ctrls.rdQLenPdf::30                      0                       # What read queue length does an incoming req see
system.mem_ctrls.rdQLenPdf::31                      0                       # What read queue length does an incoming req see
system.mem_ctrls.wrQLenPdf::0                       1                       # What write queue length does an incoming req see
system.mem_ctrls.wrQLenPdf::1                       1                       # What write queue length does an incoming req see
system.mem_ctrls.wrQLenPdf::2                       1                       # What write queue length does an incoming req see
system.mem_ctrls.wrQLenPdf::3                       1                       # What write queue length does an incoming req see
system.mem_ctrls.wrQLenPdf::4                       1                       # What write queue length does an incoming req see
system.mem_ctrls.wrQLenPdf::5                       1                       # What write queue length does an incoming req see
system.mem_ctrls.wrQLenPdf::6                       1                       # What write queue length does an incoming req see
system.mem_ctrls.wrQLenPdf::7                       1                       # What write queue length does an incoming req see
system.mem_ctrls.wrQLenPdf::8                       1                       # What write queue length does an incoming req see
system.mem_ctrls.wrQLenPdf::9                       1                       # What write queue length does an incoming req see
system.mem_ctrls.wrQLenPdf::10                      1                       # What write queue length does an incoming req see
system.mem_ctrls.wrQLenPdf::11                      1                       # What write queue length does an incoming req see
system.mem_ctrls.wrQLenPdf::12                      1                       # What write queue length does an incoming req see
system.mem_ctrls.wrQLenPdf::13                      1                       # What write queue length does an incoming req see
system.mem_ctrls.wrQLenPdf::14                      1                       # What write queue length does an incoming req see
system.mem_ctrls.wrQLenPdf::15                 156937                       # What write queue length does an incoming req see
system.mem_ctrls.wrQLenPdf::16                 161759                       # What write queue length does an incoming req see
system.mem_ctrls.wrQLenPdf::17                 278674                       # What write queue length does an incoming req see
system.mem_ctrls.wrQLenPdf::18                 278773                       # What write queue length does an incoming req see
system.mem_ctrls.wrQLenPdf::19                 284887                       # What write queue length does an incoming req see
system.mem_ctrls.wrQLenPdf::20                 284896                       # What write queue length does an incoming req see
system.mem_ctrls.wrQLenPdf::21                 284923                       # What write queue length does an incoming req see
system.mem_ctrls.wrQLenPdf::22                 284932                       # What write queue length does an incoming req see
system.mem_ctrls.wrQLenPdf::23                 284276                       # What write queue length does an incoming req see
system.mem_ctrls.wrQLenPdf::24                 284298                       # What write queue length does an incoming req see
system.mem_ctrls.wrQLenPdf::25                 284300                       # What write queue length does an incoming req see
system.mem_ctrls.wrQLenPdf::26                 284301                       # What write queue length does an incoming req see
system.mem_ctrls.wrQLenPdf::27                 284309                       # What write queue length does an incoming req see
system.mem_ctrls.wrQLenPdf::28                 284288                       # What write queue length does an incoming req see
system.mem_ctrls.wrQLenPdf::29                 284284                       # What write queue length does an incoming req see
system.mem_ctrls.wrQLenPdf::30                 284281                       # What write queue length does an incoming req see
system.mem_ctrls.wrQLenPdf::31                 284271                       # What write queue length does an incoming req see
system.mem_ctrls.wrQLenPdf::32                 284267                       # What write queue length does an incoming req see
system.mem_ctrls.wrQLenPdf::33                 167328                       # What write queue length does an incoming req see
system.mem_ctrls.wrQLenPdf::34                 167222                       # What write queue length does an incoming req see
system.mem_ctrls.wrQLenPdf::35                   4830                       # What write queue length does an incoming req see
system.mem_ctrls.wrQLenPdf::36                      1                       # What write queue length does an incoming req see
system.mem_ctrls.wrQLenPdf::37                      0                       # What write queue length does an incoming req see
system.mem_ctrls.wrQLenPdf::38                      0                       # What write queue length does an incoming req see
system.mem_ctrls.wrQLenPdf::39                      0                       # What write queue length does an incoming req see
system.mem_ctrls.wrQLenPdf::40                      0                       # What write queue length does an incoming req see
system.mem_ctrls.wrQLenPdf::41                      0                       # What write queue length does an incoming req see
system.mem_ctrls.wrQLenPdf::42                      0                       # What write queue length does an incoming req see
system.mem_ctrls.wrQLenPdf::43                      0                       # What write queue length does an incoming req see
system.mem_ctrls.wrQLenPdf::44                      0                       # What write queue length does an incoming req see
system.mem_ctrls.wrQLenPdf::45                      0                       # What write queue length does an incoming req see
system.mem_ctrls.wrQLenPdf::46                      0                       # What write queue length does an incoming req see
system.mem_ctrls.wrQLenPdf::47                      0                       # What write queue length does an incoming req see
system.mem_ctrls.wrQLenPdf::48                      0                       # What write queue length does an incoming req see
system.mem_ctrls.wrQLenPdf::49                      0                       # What write queue length does an incoming req see
system.mem_ctrls.wrQLenPdf::50                      0                       # What write queue length does an incoming req see
system.mem_ctrls.wrQLenPdf::51                      0                       # What write queue length does an incoming req see
system.mem_ctrls.wrQLenPdf::52                      0                       # What write queue length does an incoming req see
system.mem_ctrls.wrQLenPdf::53                      0                       # What write queue length does an incoming req see
system.mem_ctrls.wrQLenPdf::54                      0                       # What write queue length does an incoming req see
system.mem_ctrls.wrQLenPdf::55                      0                       # What write queue length does an incoming req see
system.mem_ctrls.wrQLenPdf::56                      0                       # What write queue length does an incoming req see
system.mem_ctrls.wrQLenPdf::57                      0                       # What write queue length does an incoming req see
system.mem_ctrls.wrQLenPdf::58                      0                       # What write queue length does an incoming req see
system.mem_ctrls.wrQLenPdf::59                      0                       # What write queue length does an incoming req see
system.mem_ctrls.wrQLenPdf::60                      0                       # What write queue length does an incoming req see
system.mem_ctrls.wrQLenPdf::61                      0                       # What write queue length does an incoming req see
system.mem_ctrls.wrQLenPdf::62                      0                       # What write queue length does an incoming req see
system.mem_ctrls.wrQLenPdf::63                      0                       # What write queue length does an incoming req see
system.mem_ctrls.bytesPerActivate::samples      1073548                       # Bytes accessed per row activation
system.mem_ctrls.bytesPerActivate::mean    623.767679                       # Bytes accessed per row activation
system.mem_ctrls.bytesPerActivate::gmean   461.192711                       # Bytes accessed per row activation
system.mem_ctrls.bytesPerActivate::stdev   392.249565                       # Bytes accessed per row activation
system.mem_ctrls.bytesPerActivate::0-127         5599      0.52%      0.52% # Bytes accessed per row activation
system.mem_ctrls.bytesPerActivate::128-255       235600     21.95%     22.47% # Bytes accessed per row activation
system.mem_ctrls.bytesPerActivate::256-383       196467     18.30%     40.77% # Bytes accessed per row activation
system.mem_ctrls.bytesPerActivate::384-511        26614      2.48%     43.25% # Bytes accessed per row activation
system.mem_ctrls.bytesPerActivate::512-639        56339      5.25%     48.50% # Bytes accessed per row activation
system.mem_ctrls.bytesPerActivate::640-767        16459      1.53%     50.03% # Bytes accessed per row activation
system.mem_ctrls.bytesPerActivate::768-895        57195      5.33%     55.36% # Bytes accessed per row activation
system.mem_ctrls.bytesPerActivate::896-1023         9181      0.86%     56.21% # Bytes accessed per row activation
system.mem_ctrls.bytesPerActivate::1024-1151       470094     43.79%    100.00% # Bytes accessed per row activation
system.mem_ctrls.bytesPerActivate::total      1073548                       # Bytes accessed per row activation
system.mem_ctrls.rdPerTurnAround::samples       284264                       # Reads before turning the bus around for writes
system.mem_ctrls.rdPerTurnAround::mean      18.522162                       # Reads before turning the bus around for writes
system.mem_ctrls.rdPerTurnAround::gmean     18.178553                       # Reads before turning the bus around for writes
system.mem_ctrls.rdPerTurnAround::stdev     83.208447                       # Reads before turning the bus around for writes
system.mem_ctrls.rdPerTurnAround::0-2047       284261    100.00%    100.00% # Reads before turning the bus around for writes
system.mem_ctrls.rdPerTurnAround::2048-4095            1      0.00%    100.00% # Reads before turning the bus around for writes
system.mem_ctrls.rdPerTurnAround::18432-20479            1      0.00%    100.00% # Reads before turning the bus around for writes
system.mem_ctrls.rdPerTurnAround::38912-40959            1      0.00%    100.00% # Reads before turning the bus around for writes
system.mem_ctrls.rdPerTurnAround::total        284264                       # Reads before turning the bus around for writes
system.mem_ctrls.wrPerTurnAround::samples       284263                       # Writes before turning the bus around for reads
system.mem_ctrls.wrPerTurnAround::mean      18.285943                       # Writes before turning the bus around for reads
system.mem_ctrls.wrPerTurnAround::gmean     18.266788                       # Writes before turning the bus around for reads
system.mem_ctrls.wrPerTurnAround::stdev      0.857933                       # Writes before turning the bus around for reads
system.mem_ctrls.wrPerTurnAround::16             5522      1.94%      1.94% # Writes before turning the bus around for reads
[...]
system.cpu.icache.ReadReq_miss_rate::.cpu.inst     0.000011                       # miss rate for ReadReq accesses
system.cpu.icache.ReadReq_miss_rate::total     0.000011                       # miss rate for ReadReq accesses
system.cpu.icache.ReadReq_avg_miss_latency::.cpu.inst 85081.491713                       # average ReadReq miss latency
system.cpu.icache.ReadReq_avg_miss_latency::total 85081.491713                       # average ReadReq miss latency
system.cpu.icache.ReadReq_mshr_misses::.cpu.inst          362                       # number of ReadReq MSHR misses
system.cpu.icache.ReadReq_mshr_misses::total          362                       # number of ReadReq MSHR misses
system.cpu.icache.ReadReq_mshr_miss_latency::.cpu.inst     30437500                       # number of ReadReq MSHR miss cycles
system.cpu.icache.ReadReq_mshr_miss_latency::total     30437500                       # number of ReadReq MSHR miss cycles
system.cpu.icache.ReadReq_mshr_miss_rate::.cpu.inst     0.000011                       # mshr miss rate for ReadReq accesses
system.cpu.icache.ReadReq_mshr_miss_rate::total     0.000011                       # mshr miss rate for ReadReq accesses
system.cpu.icache.ReadReq_avg_mshr_miss_latency::.cpu.inst 84081.491713                       # average ReadReq mshr miss latency
system.cpu.icache.ReadReq_avg_mshr_miss_latency::total 84081.491713                       # average ReadReq mshr miss latency
system.cpu.icache.tags.pwrStateResidencyTicks::UNDEFINED 258580036500                       # Cumulative time (in ticks) in various power states
system.cpu.icache.tags.tagsinuse           124.792062                       # Cycle average of tags in use
system.cpu.icache.tags.total_refs            31734290                       # Total number of references to valid blocks.
system.cpu.icache.tags.sampled_refs               362                       # Sample count of references to valid blocks.
system.cpu.icache.tags.avg_refs          87663.784530                       # Average number of references to valid blocks.
system.cpu.icache.tags.warmup_cycle            102500                       # Cycle when the warmup percentage was hit.
system.cpu.icache.tags.occ_blocks::.cpu.inst   124.792062                       # Average occupied blocks per requestor
system.cpu.icache.tags.occ_percent::.cpu.inst     0.974938                       # Average percentage of cache occupancy
system.cpu.icache.tags.occ_percent::total     0.974938                       # Average percentage of cache occupancy
system.cpu.icache.tags.occ_task_id_blocks::1024          127                       # Occupied blocks per task id
system.cpu.icache.tags.age_task_id_blocks_1024::4          127                       # Occupied blocks per task id
system.cpu.icache.tags.occ_task_id_percent::1024     0.992188                       # Percentage of cache occupancy per task id
system.cpu.icache.tags.tag_accesses          63468942                       # Number of tag accesses
system.cpu.icache.tags.data_accesses         63468942                       # Number of data accesses
system.cpu.dtb.walker.pwrStateResidencyTicks::UNDEFINED 258580036500                       # Cumulative time (in ticks) in various power states
system.cpu.dtb.stage2_mmu.stage2_tlb.walker.pwrStateResidencyTicks::UNDEFINED 258580036500                       # Cumulative time (in ticks) in various power states
system.cpu.dcache.pwrStateResidencyTicks::UNDEFINED 258580036500                       # Cumulative time (in ticks) in various power states
system.cpu.dcache.demand_hits::.cpu.data     83749358                       # number of demand (read+write) hits
system.cpu.dcache.demand_hits::total         83749358                       # number of demand (read+write) hits
system.cpu.dcache.overall_hits::.cpu.data     83749405                       # number of overall hits
system.cpu.dcache.overall_hits::total        83749405                       # number of overall hits
system.cpu.dcache.demand_misses::.cpu.data      2631254                       # number of demand (read+write) misses
system.cpu.dcache.demand_misses::total        2631254                       # number of demand (read+write) misses
system.cpu.dcache.overall_misses::.cpu.data      2631278                       # number of overall misses
system.cpu.dcache.overall_misses::total       2631278                       # number of overall misses
system.cpu.dcache.demand_miss_latency::.cpu.data 321247703000                       # number of demand (read+write) miss cycles
system.cpu.dcache.demand_miss_latency::total 321247703000                       # number of demand (read+write) miss cycles
system.cpu.dcache.overall_miss_latency::.cpu.data 321247703000                       # number of overall miss cycles
system.cpu.dcache.overall_miss_latency::total 321247703000                       # number of overall miss cycles
system.cpu.dcache.demand_accesses::.cpu.data     86380612                       # number of demand (read+write) accesses
system.cpu.dcache.demand_accesses::total     86380612                       # number of demand (read+write) accesses
system.cpu.dcache.overall_accesses::.cpu.data     86380683                       # number of overall (read+write) accesses
system.cpu.dcache.overall_accesses::total     86380683                       # number of overall (read+write) accesses
system.cpu.dcache.demand_miss_rate::.cpu.data     0.030461                       # miss rate for demand accesses
system.cpu.dcache.demand_miss_rate::total     0.030461                       # miss rate for demand accesses
system.cpu.dcache.overall_miss_rate::.cpu.data     0.030461                       # miss rate for overall accesses
system.cpu.dcache.overall_miss_rate::total     0.030461                       # miss rate for overall accesses
system.cpu.dcache.demand_avg_miss_latency::.cpu.data 122089.202715                       # average overall miss latency
system.cpu.dcache.demand_avg_miss_latency::total 122089.202715                       # average overall miss latency
system.cpu.dcache.overall_avg_miss_latency::.cpu.data 122088.089134                       # average overall miss latency
system.cpu.dcache.overall_avg_miss_latency::total 122088.089134                       # average overall miss latency
system.cpu.dcache.blocked_cycles::no_mshrs            0                       # number of cycles access was blocked
system.cpu.dcache.blocked_cycles::no_targets            0                       # number of cycles access was blocked
system.cpu.dcache.blocked::no_mshrs                 0                       # number of cycles access was blocked
system.cpu.dcache.blocked::no_targets               0                       # number of cycles access was blocked
system.cpu.dcache.avg_blocked_cycles::no_mshrs          nan                       # average number of cycles each access was blocked
system.cpu.dcache.avg_blocked_cycles::no_targets          nan                       # average number of cycles each access was blocked
system.cpu.dcache.writebacks::.writebacks      1315880                       # number of writebacks
system.cpu.dcache.writebacks::total           1315880                       # number of writebacks
system.cpu.dcache.demand_mshr_hits::.cpu.data      1315145                       # number of demand (read+write) MSHR hits
system.cpu.dcache.demand_mshr_hits::total      1315145                       # number of demand (read+write) MSHR hits
system.cpu.dcache.overall_mshr_hits::.cpu.data      1315145                       # number of overall MSHR hits
system.cpu.dcache.overall_mshr_hits::total      1315145                       # number of overall MSHR hits
system.cpu.dcache.demand_mshr_misses::.cpu.data      1316109                       # number of demand (read+write) MSHR misses
system.cpu.dcache.demand_mshr_misses::total      1316109                       # number of demand (read+write) MSHR misses
system.cpu.dcache.overall_mshr_misses::.cpu.data      1316119                       # number of overall MSHR misses
system.cpu.dcache.overall_mshr_misses::total      1316119                       # number of overall MSHR misses
system.cpu.dcache.demand_mshr_miss_latency::.cpu.data 157056898000                       # number of demand (read+write) MSHR miss cycles
system.cpu.dcache.demand_mshr_miss_latency::total 157056898000                       # number of demand (read+write) MSHR miss cycles
system.cpu.dcache.overall_mshr_miss_latency::.cpu.data 157058090000                       # number of overall MSHR miss cycles
system.cpu.dcache.overall_mshr_miss_latency::total 157058090000                       # number of overall MSHR miss cycles
system.cpu.dcache.demand_mshr_miss_rate::.cpu.data     0.015236                       # mshr miss rate for demand accesses
system.cpu.dcache.demand_mshr_miss_rate::total     0.015236                       # mshr miss rate for demand accesses
system.cpu.dcache.overall_mshr_miss_rate::.cpu.data     0.015236                       # mshr miss rate for overall accesses
system.cpu.dcache.overall_mshr_miss_rate::total     0.015236                       # mshr miss rate for overall accesses
system.cpu.dcache.demand_avg_mshr_miss_latency::.cpu.data 119334.263347                       # average overall mshr miss latency
system.cpu.dcache.demand_avg_mshr_miss_latency::total 119334.263347                       # average overall mshr miss latency
system.cpu.dcache.overall_avg_mshr_miss_latency::.cpu.data 119334.262327                       # average overall mshr miss latency
system.cpu.dcache.overall_avg_mshr_miss_latency::total 119334.262327                       # average overall mshr miss latency
system.cpu.dcache.replacements                1316055                       # number of replacements
system.cpu.dcache.ReadReq_hits::.cpu.data      2043796                       # number of ReadReq hits
system.cpu.dcache.ReadReq_hits::total         2043796                       # number of ReadReq hits
system.cpu.dcache.ReadReq_misses::.cpu.data          230                       # number of ReadReq misses
system.cpu.dcache.ReadReq_misses::total           230                       # number of ReadReq misses
system.cpu.dcache.ReadReq_miss_latency::.cpu.data     19721000                       # number of ReadReq miss cycles
system.cpu.dcache.ReadReq_miss_latency::total     19721000                       # number of ReadReq miss cycles
system.cpu.dcache.ReadReq_accesses::.cpu.data      2044026                       # number of ReadReq accesses(hits+misses)
system.cpu.dcache.ReadReq_accesses::total      2044026                       # number of ReadReq accesses(hits+misses)
system.cpu.dcache.ReadReq_miss_rate::.cpu.data     0.000113                       # miss rate for ReadReq accesses
system.cpu.dcache.ReadReq_miss_rate::total     0.000113                       # miss rate for ReadReq accesses
system.cpu.dcache.ReadReq_avg_miss_latency::.cpu.data 85743.478261                       # average ReadReq miss latency
system.cpu.dcache.ReadReq_avg_miss_latency::total 85743.478261                       # average ReadReq miss latency
system.cpu.dcache.ReadReq_mshr_hits::.cpu.data           20                       # number of ReadReq MSHR hits
system.cpu.dcache.ReadReq_mshr_hits::total           20                       # number of ReadReq MSHR hits
system.cpu.dcache.ReadReq_mshr_misses::.cpu.data          210                       # number of ReadReq MSHR misses
system.cpu.dcache.ReadReq_mshr_misses::total          210                       # number of ReadReq MSHR misses
system.cpu.dcache.ReadReq_mshr_miss_latency::.cpu.data     17803000                       # number of ReadReq MSHR miss cycles
system.cpu.dcache.ReadReq_mshr_miss_latency::total     17803000                       # number of ReadReq MSHR miss cycles
system.cpu.dcache.ReadReq_mshr_miss_rate::.cpu.data     0.000103                       # mshr miss rate for ReadReq accesses
system.cpu.dcache.ReadReq_mshr_miss_rate::total     0.000103                       # mshr miss rate for ReadReq accesses
system.cpu.dcache.ReadReq_avg_mshr_miss_latency::.cpu.data 84776.190476                       # average ReadReq mshr miss latency
system.cpu.dcache.ReadReq_avg_mshr_miss_latency::total 84776.190476                       # average ReadReq mshr miss latency
system.cpu.dcache.WriteReq_hits::.cpu.data     81705562                       # number of WriteReq hits
system.cpu.dcache.WriteReq_hits::total       81705562                       # number of WriteReq hits
system.cpu.dcache.WriteReq_misses::.cpu.data      2631024                       # number of WriteReq misses
system.cpu.dcache.WriteReq_misses::total      2631024                       # number of WriteReq misses
system.cpu.dcache.WriteReq_miss_latency::.cpu.data 321227982000                       # number of WriteReq miss cycles
system.cpu.dcache.WriteReq_miss_latency::total 321227982000                       # number of WriteReq miss cycles
system.cpu.dcache.WriteReq_accesses::.cpu.data     84336586                       # number of WriteReq accesses(hits+misses)
system.cpu.dcache.WriteReq_accesses::total     84336586                       # number of WriteReq accesses(hits+misses)
system.cpu.dcache.WriteReq_miss_rate::.cpu.data     0.031197                       # miss rate for WriteReq accesses
system.cpu.dcache.WriteReq_miss_rate::total     0.031197                       # miss rate for WriteReq accesses
system.cpu.dcache.WriteReq_avg_miss_latency::.cpu.data 122092.380001                       # average WriteReq miss latency
system.cpu.dcache.WriteReq_avg_miss_latency::total 122092.380001                       # average WriteReq miss latency
system.cpu.dcache.WriteReq_mshr_hits::.cpu.data      1315125                       # number of WriteReq MSHR hits
system.cpu.dcache.WriteReq_mshr_hits::total      1315125                       # number of WriteReq MSHR hits
system.cpu.dcache.WriteReq_mshr_misses::.cpu.data      1315899                       # number of WriteReq MSHR misses
system.cpu.dcache.WriteReq_mshr_misses::total      1315899                       # number of WriteReq MSHR misses
system.cpu.dcache.WriteReq_mshr_miss_latency::.cpu.data 157039095000                       # number of WriteReq MSHR miss cycles
system.cpu.dcache.WriteReq_mshr_miss_latency::total 157039095000                       # number of WriteReq MSHR miss cycles
system.cpu.dcache.WriteReq_mshr_miss_rate::.cpu.data     0.015603                       # mshr miss rate for WriteReq accesses
system.cpu.dcache.WriteReq_mshr_miss_rate::total     0.015603                       # mshr miss rate for WriteReq accesses
system.cpu.dcache.WriteReq_avg_mshr_miss_latency::.cpu.data 119339.778357                       # average WriteReq mshr miss latency
system.cpu.dcache.WriteReq_avg_mshr_miss_latency::total 119339.778357                       # average WriteReq mshr miss latency
system.cpu.dcache.SoftPFReq_hits::.cpu.data           47                       # number of SoftPFReq hits
system.cpu.dcache.SoftPFReq_hits::total            47                       # number of SoftPFReq hits
system.cpu.dcache.SoftPFReq_misses::.cpu.data           24                       # number of SoftPFReq misses
system.cpu.dcache.SoftPFReq_misses::total           24                       # number of SoftPFReq misses
system.cpu.dcache.SoftPFReq_accesses::.cpu.data           71                       # number of SoftPFReq accesses(hits+misses)
system.cpu.dcache.SoftPFReq_accesses::total           71                       # number of SoftPFReq accesses(hits+misses)
system.cpu.dcache.SoftPFReq_miss_rate::.cpu.data     0.338028                       # miss rate for SoftPFReq accesses
system.cpu.dcache.SoftPFReq_miss_rate::total     0.338028                       # miss rate for SoftPFReq accesses
system.cpu.dcache.SoftPFReq_mshr_misses::.cpu.data           10                       # number of SoftPFReq MSHR misses
system.cpu.dcache.SoftPFReq_mshr_misses::total           10                       # number of SoftPFReq MSHR misses
system.cpu.dcache.SoftPFReq_mshr_miss_latency::.cpu.data      1192000                       # number of SoftPFReq MSHR miss cycles
system.cpu.dcache.SoftPFReq_mshr_miss_latency::total      1192000                       # number of SoftPFReq MSHR miss cycles
system.cpu.dcache.SoftPFReq_mshr_miss_rate::.cpu.data     0.140845                       # mshr miss rate for SoftPFReq accesses
system.cpu.dcache.SoftPFReq_mshr_miss_rate::total     0.140845                       # mshr miss rate for SoftPFReq accesses
system.cpu.dcache.SoftPFReq_avg_mshr_miss_latency::.cpu.data       119200                       # average SoftPFReq mshr miss latency
system.cpu.dcache.SoftPFReq_avg_mshr_miss_latency::total       119200                       # average SoftPFReq mshr miss latency
system.cpu.dcache.LoadLockedReq_hits::.cpu.data           34                       # number of LoadLockedReq hits
system.cpu.dcache.LoadLockedReq_hits::total           34                       # number of LoadLockedReq hits
system.cpu.dcache.LoadLockedReq_accesses::.cpu.data           34                       # number of LoadLockedReq accesses(hits+misses)
system.cpu.dcache.LoadLockedReq_accesses::total           34                       # number of LoadLockedReq accesses(hits+misses)
system.cpu.dcache.StoreCondReq_hits::.cpu.data           34                       # number of StoreCondReq hits
system.cpu.dcache.StoreCondReq_hits::total           34                       # number of StoreCondReq hits
system.cpu.dcache.StoreCondReq_accesses::.cpu.data           34                       # number of StoreCondReq accesses(hits+misses)
system.cpu.dcache.StoreCondReq_accesses::total           34                       # number of StoreCondReq accesses(hits+misses)
system.cpu.dcache.tags.pwrStateResidencyTicks::UNDEFINED 258580036500                       # Cumulative time (in ticks) in various power states
system.cpu.dcache.tags.tagsinuse            63.997905                       # Cycle average of tags in use
system.cpu.dcache.tags.total_refs            85065592                       # Total number of references to valid blocks.
system.cpu.dcache.tags.sampled_refs           1316119                       # Sample count of references to valid blocks.
system.cpu.dcache.tags.avg_refs             64.633663                       # Average number of references to valid blocks.
system.cpu.dcache.tags.warmup_cycle            213500                       # Cycle when the warmup percentage was hit.
system.cpu.dcache.tags.occ_blocks::.cpu.data    63.997905                       # Average occupied blocks per requestor
system.cpu.dcache.tags.occ_percent::.cpu.data     0.999967                       # Average percentage of cache occupancy
system.cpu.dcache.tags.occ_percent::total     0.999967                       # Average percentage of cache occupancy
system.cpu.dcache.tags.occ_task_id_blocks::1024           64                       # Occupied blocks per task id
system.cpu.dcache.tags.age_task_id_blocks_1024::0           53                       # Occupied blocks per task id
system.cpu.dcache.tags.age_task_id_blocks_1024::1           11                       # Occupied blocks per task id
system.cpu.dcache.tags.occ_task_id_percent::1024            1                       # Percentage of cache occupancy per task id
system.cpu.dcache.tags.tag_accesses         692362127                       # Number of tag accesses
system.cpu.dcache.tags.data_accesses        692362127                       # Number of data accesses
system.cpu.itb.walker.pwrStateResidencyTicks::UNDEFINED 258580036500                       # Cumulative time (in ticks) in various power states
system.cpu.itb.stage2_mmu.stage2_tlb.walker.pwrStateResidencyTicks::UNDEFINED 258580036500                       # Cumulative time (in ticks) in various power states

---------- End Simulation Statistics   ----------
