
---------- Begin Simulation Statistics ----------
final_tick                                83537609500                       # Number of ticks from beginning of simulation (restored from checkpoints and never reset)
host_inst_rate                                 453622                       # Simulator instruction rate (inst/s)
host_mem_usage                                 681240                       # Number of bytes of host memory used
host_op_rate                                   454513                       # Simulator op (including micro ops) rate (op/s)
host_seconds                                   220.45                       # Real time elapsed on the host
host_tick_rate                              378945154                       # Simulator tick rate (ticks/s)
sim_freq                                 1000000000000                       # Frequency of simulated ticks
sim_insts                                   100000001                       # Number of instructions simulated
sim_ops                                     100196363                       # Number of ops (including micro ops) simulated
sim_seconds                                  0.083538                       # Number of seconds simulated
sim_ticks                                 83537609500                       # Number of ticks simulated
system.cpu.branchPred.BTBCorrect                    0                       # Number of correct BTB predictions (this stat may not work properly.
system.cpu.branchPred.BTBHitPct             99.616742                       # BTB Hit Percentage
system.cpu.branchPred.BTBHits                 2096262                       # Number of BTB hits
system.cpu.branchPred.BTBLookups              2104327                       # Number of BTB lookups
system.cpu.branchPred.RASInCorrect                  5                       # Number of incorrect RAS predictions.
system.cpu.branchPred.condIncorrect             81377                       # Number of conditional branches incorrect
system.cpu.branchPred.condPredicted           3728715                       # Number of conditional branches predicted
system.cpu.branchPred.indirectHits                301                       # Number of indirect target hits.
system.cpu.branchPred.indirectLookups            1022                       # Number of indirect predictor lookups.
system.cpu.branchPred.indirectMisses              721                       # Number of indirect misses.
system.cpu.branchPred.lookups                 4479108                       # Number of BP lookups
system.cpu.branchPred.usedRAS                   65350                       # Number of times the RAS was used to get a target.
system.cpu.branchPredindirectMispredicted          163                       # Number of mispredicted indirect branches.
system.cpu.committedInsts                   100000001                       # Number of instructions committed
system.cpu.committedOps                     100196363                       # Number of ops (including micro ops) committed
system.cpu.cpi                               1.670752                       # CPI: cycles per instruction
system.cpu.discardedOps                        190797                       # Number of ops (including micro ops) which were discarded before commit
system.cpu.dtb.accesses                             0                       # DTB accesses
system.cpu.dtb.align_faults                         0                       # Number of TLB faults due to alignment restrictions
system.cpu.dtb.domain_faults                        0                       # Number of TLB faults due to domain restrictions
system.cpu.dtb.flush_entries                        0                       # Number of entries that have been flushed from TLB
system.cpu.dtb.flush_tlb                            0                       # Number of times complete TLB was flushed
system.cpu.dtb.flush_tlb_asid                       0                       # Number of times TLB was flushed by ASID
system.cpu.dtb.flush_tlb_mva                        0                       # Number of times TLB was flushed by MVA
system.cpu.dtb.flush_tlb_mva_asid                   0                       # Number of times TLB was flushed by MVA & ASID
system.cpu.dtb.hits                                 0                       # DTB hits
system.cpu.dtb.inst_accesses                        0                       # ITB inst accesses
system.cpu.dtb.inst_hits                            0                       # ITB inst hits
system.cpu.dtb.inst_misses                          0                       # ITB inst misses
system.cpu.dtb.misses                               0                       # DTB misses
system.cpu.dtb.perms_faults                         0                       # Number of TLB faults due to permissions restrictions
system.cpu.dtb.prefetch_faults                      0                       # Number of TLB faults due to prefetch
system.cpu.dtb.read_accesses                        0                       # DTB read accesses
system.cpu.dtb.read_hits                            0                       # DTB read hits
system.cpu.dtb.read_misses                          0                       # DTB read misses
system.cpu.dtb.stage2_mmu.stage2_tlb.accesses            0                       # DTB accesses
system.cpu.dtb.stage2_mmu.stage2_tlb.align_faults            0                       # Number of TLB faults due to alignment restrictions
system.cpu.dtb.stage2_mmu.stage2_tlb.domain_faults            0                       # Number of TLB faults due to domain restrictions
system.cpu.dtb.stage2_mmu.stage2_tlb.flush_entries            0                       # Number of entries that have been flushed from TLB
system.cpu.dtb.stage2_mmu.stage2_tlb.flush_tlb            0                       # Number of times complete TLB was flushed
system.cpu.dtb.stage2_mmu.stage2_tlb.flush_tlb_asid            0                       # Number of times TLB was flushed by ASID
system.cpu.dtb.stage2_mmu.stage2_tlb.flush_tlb_mva            0                       # Number of times TLB was flushed by MVA
system.cpu.dtb.stage2_mmu.stage2_tlb.flush_tlb_mva_asid            0                       # Number of times TLB was flushed by MVA & ASID
system.cpu.dtb.stage2_mmu.stage2_tlb.hits            0                       # DTB hits
system.cpu.dtb.stage2_mmu.stage2_tlb.inst_accesses            0                       # ITB inst accesses
system.cpu.dtb.stage2_mmu.stage2_tlb.inst_hits            0                       # ITB inst hits
system.cpu.dtb.stage2_mmu.stage2_tlb.inst_misses            0                       # ITB inst misses
system.cpu.dtb.stage2_mmu.stage2_tlb.misses            0                       # DTB misses
system.cpu.dtb.stage2_mmu.stage2_tlb.perms_faults            0                       # Number of TLB faults due to permissions restrictions
system.cpu.dtb.stage2_mmu.stage2_tlb.prefetch_faults            0                       # Number of TLB faults due to prefetch
system.cpu.dtb.stage2_mmu.stage2_tlb.read_accesses            0                       # DTB read accesses
system.cpu.dtb.stage2_mmu.stage2_tlb.read_hits            0                       # DTB read hits
system.cpu.dtb.stage2_mmu.stage2_tlb.read_misses            0                       # DTB read misses
system.cpu.dtb.stage2_mmu.stage2_tlb.walker.walkRequestOrigin_Requested::Data            0                       # Table walker requests started/completed, data/inst
system.cpu.dtb.stage2_mmu.stage2_tlb.walker.walkRequestOrigin_Requested::Inst            0                       # Table walker requests started/completed, data/inst
system.cpu.dtb.stage2_mmu.stage2_tlb.walker.walkRequestOrigin_Requested::total            0                       # Table walker requests started/completed, data/inst
system.cpu.dtb.stage2_mmu.stage2_tlb.walker.walkRequestOrigin_Completed::Data            0                       # Table walker requests started/completed, data/inst
system.cpu.dtb.stage2_mmu.stage2_tlb.walker.walkRequestOrigin_Completed::Inst            0                       # Table walker requests started/completed, data/inst
system.cpu.dtb.stage2_mmu.stage2_tlb.walker.walkRequestOrigin_Completed::total            0                       # Table walker requests started/completed, data/inst
system.cpu.dtb.stage2_mmu.stage2_tlb.walker.walkRequestOrigin::total            0                       # Table walker requests started/completed, data/inst
system.cpu.dtb.stage2_mmu.stage2_tlb.walker.walks            0                       # Table walker walks requested
system.cpu.dtb.stage2_mmu.stage2_tlb.write_accesses            0                       # DTB write accesses
system.cpu.dtb.stage2_mmu.stage2_tlb.write_hits            0                       # DTB write hits
system.cpu.dtb.stage2_mmu.stage2_tlb.write_misses            0                       # DTB write misses
system.cpu.dtb.walker.walkRequestOrigin_Requested::Data            0                       # Table walker requests started/completed, data/inst
system.cpu.dtb.walker.walkRequestOrigin_Requested::Inst            0                       # Table walker requests started/completed, data/inst
system.cpu.dtb.walker.walkRequestOrigin_Requested::total            0                       # Table walker requests started/completed, data/inst
system.cpu.dtb.walker.walkRequestOrigin_Completed::Data            0                       # Table walker requests started/completed, data/inst
system.cpu.dtb.walker.walkRequestOrigin_Completed::Inst            0                       # Table walker requests started/completed, data/inst
system.cpu.dtb.walker.walkRequestOrigin_Completed::total            0                       # Table walker requests started/completed, data/inst
system.cpu.dtb.walker.walkRequestOrigin::total            0                       # Table walker requests started/completed, data/inst
system.cpu.dtb.walker.walks                         0                       # Table walker walks requested
system.cpu.dtb.write_accesses                       0                       # DTB write accesses
system.cpu.dtb.write_hits                           0                       # DTB write hits
system.cpu.dtb.write_misses                         0                       # DTB write misses
system.cpu.fetch2.amo_instructions                  0                       # Number of memory atomic instructions successfully decoded
system.cpu.fetch2.fp_instructions                   0                       # Number of floating point instructions successfully decoded
system.cpu.fetch2.int_instructions           42615073                       # Number of integer instructions successfully decoded
system.cpu.fetch2.load_instructions          43408248                       # Number of memory load instructions successfully decoded
system.cpu.fetch2.store_instructions         11002280                       # Number of memory store instructions successfully decoded
system.cpu.fetch2.vec_instructions                  0                       # Number of SIMD instructions successfully decoded
system.cpu.idleCycles                        34472709                       # Total number of cycles that the object has spent stopped
system.cpu.ipc                               0.598533                       # IPC: instructions per cycle
system.cpu.itb.accesses                             0                       # DTB accesses
system.cpu.itb.align_faults                         0                       # Number of TLB faults due to alignment restrictions
system.cpu.itb.domain_faults                        0                       # Number of TLB faults due to domain restrictions
system.cpu.itb.flush_entries                        0                       # Number of entries that have been flushed from TLB
system.cpu.itb.flush_tlb                            0                       # Number of times complete TLB was flushed
system.cpu.itb.flush_tlb_asid                       0                       # Number of times TLB was flushed by ASID
system.cpu.itb.flush_tlb_mva                        0                       # Number of times TLB was flushed by MVA
system.cpu.itb.flush_tlb_mva_asid                   0                       # Number of times TLB was flushed by MVA & ASID
system.cpu.itb.hits                                 0                       # DTB hits
system.cpu.itb.inst_accesses                        0                       # ITB inst accesses
system.cpu.itb.inst_hits                            0                       # ITB inst hits
system.cpu.itb.inst_misses                          0                       # ITB inst misses
system.cpu.itb.misses                               0                       # DTB misses
system.cpu.itb.perms_faults                         0                       # Number of TLB faults due to permissions restrictions
system.cpu.itb.prefetch_faults                      0                       # Number of TLB faults due to prefetch
system.cpu.itb.read_accesses                        0                       # DTB read accesses
system.cpu.itb.read_hits                            0                       # DTB read hits
system.cpu.itb.read_misses                          0                       # DTB read misses
system.cpu.itb.stage2_mmu.stage2_tlb.accesses            0                       # DTB accesses
system.cpu.itb.stage2_mmu.stage2_tlb.align_faults            0                       # Number of TLB faults due to alignment restrictions
system.cpu.itb.stage2_mmu.stage2_tlb.domain_faults            0                       # Number of TLB faults due to domain restrictions
system.cpu.itb.stage2_mmu.stage2_tlb.flush_entries            0                       # Number of entries that have been flushed from TLB
system.cpu.itb.stage2_mmu.stage2_tlb.flush_tlb            0                       # Number of times complete TLB was flushed
system.cpu.itb.stage2_mmu.stage2_tlb.flush_tlb_asid            0                       # Number of times TLB was flushed by ASID
system.cpu.itb.stage2_mmu.stage2_tlb.flush_tlb_mva            0                       # Number of times TLB was flushed by MVA
system.cpu.itb.stage2_mmu.stage2_tlb.flush_tlb_mva_asid            0                       # Number of times TLB was flushed by MVA & ASID
system.cpu.itb.stage2_mmu.stage2_tlb.hits            0                       # DTB hits
system.cpu.itb.stage2_mmu.stage2_tlb.inst_accesses            0                       # ITB inst accesses
system.cpu.itb.stage2_mmu.stage2_tlb.inst_hits            0                       # ITB inst hits
system.cpu.itb.stage2_mmu.stage2_tlb.inst_misses            0                       # ITB inst misses
system.cpu.itb.stage2_mmu.stage2_tlb.misses            0                       # DTB misses
system.cpu.itb.stage2_mmu.stage2_tlb.perms_faults            0                       # Number of TLB faults due to permissions restrictions
system.cpu.itb.stage2_mmu.stage2_tlb.prefetch_faults            0                       # Number of TLB faults due to prefetch
system.cpu.itb.stage2_mmu.stage2_tlb.read_accesses            0                       # DTB read accesses
system.cpu.itb.stage2_mmu.stage2_tlb.read_hits            0                       # DTB read hits
system.cpu.itb.stage2_mmu.stage2_tlb.read_misses            0                       # DTB read misses
system.cpu.itb.stage2_mmu.stage2_tlb.walker.walkRequestOrigin_Requested::Data            0                       # Table walker requests started/completed, data/inst
system.cpu.itb.stage2_mmu.stage2_tlb.walker.walkRequestOrigin_Requested::Inst            0                       # Table walker requests started/completed, data/inst
system.cpu.itb.stage2_mmu.stage2_tlb.walker.walkRequestOrigin_Requested::total            0                       # Table walker requests started/completed, data/inst
system.cpu.itb.stage2_mmu.stage2_tlb.walker.walkRequestOrigin_Completed::Data            0                       # Table walker requests started/completed, data/inst
system.cpu.itb.stage2_mmu.stage2_tlb.walker.walkRequestOrigin_Completed::Inst            0                       # Table walker requests started/completed, data/inst
system.cpu.itb.stage2_mmu.stage2_tlb.walker.walkRequestOrigin_Completed::total            0                       # Table walker requests started/completed, data/inst
system.cpu.itb.stage2_mmu.stage2_tlb.walker.walkRequestOrigin::total            0                       # Table walker requests started/completed, data/inst
system.cpu.itb.stage2_mmu.stage2_tlb.walker.walks            0                       # Table walker walks requested
system.cpu.itb.stage2_mmu.stage2_tlb.write_accesses            0                       # DTB write accesses
system.cpu.itb.stage2_mmu.stage2_tlb.write_hits            0                       # DTB write hits
system.cpu.itb.stage2_mmu.stage2_tlb.write_misses            0                       # DTB write misses
system.cpu.itb.walker.walkRequestOrigin_Requested::Data            0                       # Table walker requests started/completed, data/inst
system.cpu.itb.walker.walkRequestOrigin_Requested::Inst            0                       # Table walker requests started/completed, data/inst
system.cpu.itb.walker.walkRequestOrigin_Requested::total            0                       # Table walker requests started/completed, data/inst
system.cpu.itb.walker.walkRequestOrigin_Completed::Data            0                       # Table walker requests started/completed, data/inst
system.cpu.itb.walker.walkRequestOrigin_Completed::Inst            0                       # Table walker requests started/completed, data/inst
system.cpu.itb.walker.walkRequestOrigin_Completed::total            0                       # Table walker requests started/completed, data/inst
system.cpu.itb.walker.walkRequestOrigin::total            0                       # Table walker requests started/completed, data/inst
system.cpu.itb.walker.walks                         0                       # Table walker walks requested
system.cpu.itb.write_accesses                       0                       # DTB write accesses
system.cpu.itb.write_hits                           0                       # DTB write hits
system.cpu.itb.write_misses                         0                       # DTB write misses
system.cpu.numCycles                        167075219                       # number of cpu cycles simulated
system.cpu.numFetchSuspends                         0                       # Number of times Execute suspended instruction fetching
system.cpu.numWorkItemsCompleted                    0                       # number of work items this cpu completed
system.cpu.numWorkItemsStarted                      0                       # number of work items this cpu started
system.cpu.op_class_0::No_OpClass                   0      0.00%      0.00% # Class of committed instruction
system.cpu.op_class_0::IntAlu                46531400     46.44%     46.44% # Class of committed instruction
system.cpu.op_class_0::IntMult                  20720      0.02%     46.46% # Class of committed instruction
system.cpu.op_class_0::IntDiv                       0      0.00%     46.46% # Class of committed instruction
system.cpu.op_class_0::FloatAdd                     0      0.00%     46.46% # Class of committed instruction
system.cpu.op_class_0::FloatCmp                     0      0.00%     46.46% # Class of committed instruction
system.cpu.op_class_0::FloatCvt                     0      0.00%     46.46% # Class of committed instruction
system.cpu.op_class_0::FloatMult                    0      0.00%     46.46% # Class of committed instruction
system.cpu.op_class_0::FloatMultAcc                 0      0.00%     46.46% # Class of committed instruction
system.cpu.op_class_0::FloatDiv                     0      0.00%     46.46% # Class of committed instruction
system.cpu.op_class_0::FloatMisc                    0      0.00%     46.46% # Class of committed instruction
system.cpu.op_class_0::FloatSqrt                    0      0.00%     46.46% # Class of committed instruction
system.cpu.op_class_0::SimdAdd                      0      0.00%     46.46% # Class of committed instruction
system.cpu.op_class_0::SimdAddAcc                   0      0.00%     46.46% # Class of committed instruction
system.cpu.op_class_0::SimdAlu                      0      0.00%     46.46% # Class of committed instruction
system.cpu.op_class_0::SimdCmp                      0      0.00%     46.46% # Class of committed instruction
system.cpu.op_class_0::SimdCvt                      0      0.00%     46.46% # Class of committed instruction
system.cpu.op_class_0::SimdMisc                     0      0.00%     46.46% # Class of committed instruction
system.cpu.op_class_0::SimdMult                     0      0.00%     46.46% # Class of committed instruction
system.cpu.op_class_0::SimdMultAcc                  0      0.00%     46.46% # Class of committed instruction
system.cpu.op_class_0::SimdShift                    0      0.00%     46.46% # Class of committed instruction
system.cpu.op_class_0::SimdShiftAcc                 0      0.00%     46.46% # Class of committed instruction
system.cpu.op_class_0::SimdDiv                      0      0.00%     46.46% # Class of committed instruction
system.cpu.op_class_0::SimdSqrt                     0      0.00%     46.46% # Class of committed instruction
system.cpu.op_class_0::SimdFloatAdd                 0      0.00%     46.46% # Class of committed instruction
system.cpu.op_class_0::SimdFloatAlu                 0      0.00%     46.46% # Class of committed instruction
system.cpu.op_class_0::SimdFloatCmp                 0      0.00%     46.46% # Class of committed instruction
system.cpu.op_class_0::SimdFloatCvt                 0      0.00%     46.46% # Class of committed instruction
system.cpu.op_class_0::SimdFloatDiv                 0      0.00%     46.46% # Class of committed instruction
system.cpu.op_class_0::SimdFloatMisc               18      0.00%     46.46% # Class of committed instruction
system.cpu.op_class_0::SimdFloatMult                0      0.00%     46.46% # Class of committed instruction
system.cpu.op_class_0::SimdFloatMultAcc             0      0.00%     46.46% # Class of committed instruction
system.cpu.op_class_0::SimdFloatSqrt                0      0.00%     46.46% # Class of committed instruction
system.cpu.op_class_0::SimdReduceAdd                0      0.00%     46.46% # Class of committed instruction
system.cpu.op_class_0::SimdReduceAlu                0      0.00%     46.46% # Class of committed instruction
system.cpu.op_class_0::SimdReduceCmp                0      0.00%     46.46% # Class of committed instruction
system.cpu.op_class_0::SimdFloatReduceAdd            0      0.00%     46.46% # Class of committed instruction
system.cpu.op_class_0::SimdFloatReduceCmp            0      0.00%     46.46% # Class of committed instruction
system.cpu.op_class_0::SimdAes                      0      0.00%     46.46% # Class of committed instruction
system.cpu.op_class_0::SimdAesMix                   0      0.00%     46.46% # Class of committed instruction
system.cpu.op_class_0::SimdSha1Hash                 0      0.00%     46.46% # Class of committed instruction
system.cpu.op_class_0::SimdSha1Hash2                0      0.00%     46.46% # Class of committed instruction
system.cpu.op_class_0::SimdSha256Hash               0      0.00%     46.46% # Class of committed instruction
system.cpu.op_class_0::SimdSha256Hash2              0      0.00%     46.46% # Class of committed instruction
system.cpu.op_class_0::SimdShaSigma2                0      0.00%     46.46% # Class of committed instruction
system.cpu.op_class_0::SimdShaSigma3                0      0.00%     46.46% # Class of committed instruction
system.cpu.op_class_0::SimdPredAlu                  0      0.00%     46.46% # Class of committed instruction
system.cpu.op_class_0::MemRead               42693601     42.61%     89.07% # Class of committed instruction
system.cpu.op_class_0::MemWrite              10950624     10.93%    100.00% # Class of committed instruction
system.cpu.op_class_0::FloatMemRead                 0      0.00%    100.00% # Class of committed instruction
system.cpu.op_class_0::FloatMemWrite                0      0.00%    100.00% # Class of committed instruction
system.cpu.op_class_0::IprAccess                    0      0.00%    100.00% # Class of committed instruction
system.cpu.op_class_0::InstPrefetch                 0      0.00%    100.00% # Class of committed instruction
system.cpu.op_class_0::total                100196363                       # Class of committed instruction
system.cpu.tickCycles                       132602510                       # Number of cycles that the object actually ticked
system.cpu.workload.numSyscalls                    84                       # Number of system calls
system.membus.snoop_filter.hit_multi_requests            0                       # Number of requests hitting in the snoop filter with multiple (>1) holders of the requested data.
system.membus.snoop_filter.hit_multi_snoops            0                       # Number of snoops hitting in the snoop filter with multiple (>1) holders of the requested data.
system.membus.snoop_filter.hit_single_requests        57899                       # Number of requests hitting in the snoop filter with a single holder of the requested data.
system.membus.snoop_filter.hit_single_snoops            0                       # Number of snoops hitting in the snoop filter with a single holder of the requested data.
system.membus.snoop_filter.tot_requests        132257                       # Total number of requests made to the snoop filter.
system.membus.snoop_filter.tot_snoops               0                       # Total number of snoops made to the snoop filter.
system.tol2bus.snoop_filter.hit_multi_requests          291                       # Number of requests hitting in the snoop filter with multiple (>1) holders of the requested data.
system.tol2bus.snoop_filter.hit_multi_snoops            1                       # Number of snoops hitting in the snoop filter with multiple (>1) holders of the requested data.
system.tol2bus.snoop_filter.hit_single_requests       910459                       # Number of requests hitting in the snoop filter with a single holder of the requested data.
system.tol2bus.snoop_filter.hit_single_snoops          184                       # Number of snoops hitting in the snoop filter with a single holder of the requested data.
system.tol2bus.snoop_filter.tot_requests      1821169                       # Total number of requests made to the snoop filter.
system.tol2bus.snoop_filter.tot_snoops            185                       # Total number of snoops made to the snoop filter.
system.membus.pwrStateResidencyTicks::UNDEFINED  83537609500                       # Cumulative time (in ticks) in various power states
system.membus.trans_dist::ReadResp              19373                       # Transaction distribution
system.membus.trans_dist::WritebackDirty        40236                       # Transaction distribution
system.membus.trans_dist::CleanEvict            17656                       # Transaction distribution
system.membus.trans_dist::ReadExReq             54992                       # Transaction distribution
system.membus.trans_dist::ReadExResp            54992                       # Transaction distribution
system.membus.trans_dist::ReadSharedReq         19373                       # Transaction distribution
system.membus.pkt_count_system.l2.mem_side::system.mem_ctrls.port       206622                       # Packet count per connected master and slave (bytes)
system.membus.pkt_count::total                 206622                       # Packet count per connected master and slave (bytes)
system.membus.pkt_size_system.l2.mem_side::system.mem_ctrls.port     29337856                       # Cumulative packet size per connected master and slave (bytes)
system.membus.pkt_size::total                29337856                       # Cumulative packet size per connected master and slave (bytes)
system.membus.snoops                                0                       # Total snoops (count)
system.membus.snoopTraffic                          0                       # Total snoop traffic (bytes)
system.membus.snoop_fanout::samples             74365                       # Request fanout histogram
system.membus.snoop_fanout::mean                    0                       # Request fanout histogram
system.membus.snoop_fanout::stdev                   0                       # Request fanout histogram
system.membus.snoop_fanout::underflows              0      0.00%      0.00% # Request fanout histogram
system.membus.snoop_fanout::0                   74365    100.00%    100.00% # Request fanout histogram
system.membus.snoop_fanout::1                       0      0.00%    100.00% # Request fanout histogram
system.membus.snoop_fanout::overflows               0      0.00%    100.00% # Request fanout histogram
system.membus.snoop_fanout::min_value               0                       # Request fanout histogram
system.membus.snoop_fanout::max_value               0                       # Request fanout histogram
system.membus.snoop_fanout::total               74365                       # Request fanout histogram
system.membus.respLayer1.occupancy         1292507250                       # Layer occupancy (ticks)
system.membus.respLayer1.utilization              1.5                       # Layer utilization (%)
system.membus.reqLayer0.occupancy           798045000                       # Layer occupancy (ticks)
system.membus.reqLayer0.utilization               1.0                       # Layer utilization (%)
system.tol2bus.pwrStateResidencyTicks::UNDEFINED  83537609500                       # Cumulative time (in ticks) in various power states
system.tol2bus.trans_dist::ReadResp            522897                       # Transaction distribution
system.tol2bus.trans_dist::WritebackDirty       928524                       # Transaction distribution
system.tol2bus.trans_dist::WritebackClean          322                       # Transaction distribution
system.tol2bus.trans_dist::CleanEvict           39690                       # Transaction distribution
system.tol2bus.trans_dist::ReadExReq           387813                       # Transaction distribution
system.tol2bus.trans_dist::ReadExResp          387812                       # Transaction distribution
system.tol2bus.trans_dist::ReadCleanReq           444                       # Transaction distribution
system.tol2bus.trans_dist::ReadSharedReq       522453                       # Transaction distribution
system.tol2bus.pkt_count_system.cpu.icache.mem_side::system.l2.cpu_side         1210                       # Packet count per connected master and slave (bytes)
system.tol2bus.pkt_count_system.cpu.dcache.mem_side::system.l2.cpu_side      2730668                       # Packet count per connected master and slave (bytes)
system.tol2bus.pkt_count::total               2731878                       # Packet count per connected master and slave (bytes)
system.tol2bus.pkt_size_system.cpu.icache.mem_side::system.l2.cpu_side       196096                       # Cumulative packet size per connected master and slave (bytes)
system.tol2bus.pkt_size_system.cpu.dcache.mem_side::system.l2.cpu_side    460429568                       # Cumulative packet size per connected master and slave (bytes)
system.tol2bus.pkt_size::total              460625664                       # Cumulative packet size per connected master and slave (bytes)
system.tol2bus.snoops                           58077                       # Total snoops (count)
system.tol2bus.snoopTraffic                  10300416                       # Total snoop traffic (bytes)
system.tol2bus.snoop_fanout::samples           968787                       # Request fanout histogram
system.tol2bus.snoop_fanout::mean            0.000492                       # Request fanout histogram
system.tol2bus.snoop_fanout::stdev           0.022230                       # Request fanout histogram
system.tol2bus.snoop_fanout::underflows             0      0.00%      0.00% # Request fanout histogram
system.tol2bus.snoop_fanout::0                 968311     99.95%     99.95% # Request fanout histogram
system.tol2bus.snoop_fanout::1                    475      0.05%    100.00% # Request fanout histogram
system.tol2bus.snoop_fanout::2                      1      0.00%    100.00% # Request fanout histogram
system.tol2bus.snoop_fanout::overflows              0      0.00%    100.00% # Request fanout histogram
system.tol2bus.snoop_fanout::min_value              0                       # Request fanout histogram
system.tol2bus.snoop_fanout::max_value              2                       # Request fanout histogram
system.tol2bus.snoop_fanout::total             968787                       # Request fanout histogram
system.tol2bus.reqLayer0.occupancy         4465024500                       # Layer occupancy (ticks)
system.tol2bus.reqLayer0.utilization              5.3                       # Layer utilization (%)
system.tol2bus.respLayer1.occupancy        4096195494                       # Layer occupancy (ticks)
system.tol2bus.respLayer1.utilization             4.9                       # Layer utilization (%)
system.tol2bus.respLayer0.occupancy           1998000                       # Layer occupancy (ticks)
system.tol2bus.respLayer0.utilization             0.0                       # Layer utilization (%)
system.voltage_domain.voltage                       1                       # Voltage in Volts
system.clk_domain.clock                          1000                       # Clock period in ticks
system.l2.pwrStateResidencyTicks::UNDEFINED  83537609500                       # Cumulative time (in ticks) in various power states
system.l2.demand_hits::.cpu.inst                  151                       # number of demand (read+write) hits
system.l2.demand_hits::.cpu.data               836188                       # number of demand (read+write) hits
system.l2.demand_hits::total                   836339                       # number of demand (read+write) hits
system.l2.overall_hits::.cpu.inst                 151                       # number of overall hits
system.l2.overall_hits::.cpu.data              836188                       # number of overall hits
system.l2.overall_hits::total                  836339                       # number of overall hits
system.l2.demand_misses::.cpu.inst                293                       # number of demand (read+write) misses
system.l2.demand_misses::.cpu.data              74078                       # number of demand (read+write) misses
system.l2.demand_misses::total                  74371                       # number of demand (read+write) misses
system.l2.overall_misses::.cpu.inst               293                       # number of overall misses
system.l2.overall_misses::.cpu.data             74078                       # number of overall misses
system.l2.overall_misses::total                 74371                       # number of overall misses
system.l2.demand_miss_latency::.cpu.inst     28960000                       # number of demand (read+write) miss cycles
system.l2.demand_miss_latency::.cpu.data   8800533500                       # number of demand (read+write) miss cycles
system.l2.demand_miss_latency::total       8829493500                       # number of demand (read+write) miss cycles
system.l2.overall_miss_latency::.cpu.inst     28960000                       # number of overall miss cycles
system.l2.overall_miss_latency::.cpu.data   8800533500                       # number of overall miss cycles
system.l2.overall_miss_latency::total      8829493500                       # number of overall miss cycles
system.l2.demand_accesses::.cpu.inst              444                       # number of demand (read+write) accesses
system.l2.demand_accesses::.cpu.data           910266                       # number of demand (read+write) accesses
system.l2.demand_accesses::total               910710                       # number of demand (read+write) accesses
system.l2.overall_accesses::.cpu.inst             444                       # number of overall (read+write) accesses
system.l2.overall_accesses::.cpu.data          910266                       # number of overall (read+write) accesses
system.l2.overall_accesses::total              910710                       # number of overall (read+write) accesses
system.l2.demand_miss_rate::.cpu.inst        0.659910                       # miss rate for demand accesses
system.l2.demand_miss_rate::.cpu.data        0.081381                       # miss rate for demand accesses
system.l2.demand_miss_rate::total            0.081663                       # miss rate for demand accesses
system.l2.overall_miss_rate::.cpu.inst       0.659910                       # miss rate for overall accesses
system.l2.overall_miss_rate::.cpu.data       0.081381                       # miss rate for overall accesses
system.l2.overall_miss_rate::total           0.081663                       # miss rate for overall accesses
system.l2.demand_avg_miss_latency::.cpu.inst 98839.590444                       # average overall miss latency
system.l2.demand_avg_miss_latency::.cpu.data 118800.905802                       # average overall miss latency
system.l2.demand_avg_miss_latency::total 118722.264055                       # average overall miss latency
system.l2.overall_avg_miss_latency::.cpu.inst 98839.590444                       # average overall miss latency
system.l2.overall_avg_miss_latency::.cpu.data 118800.905802                       # average overall miss latency
system.l2.overall_avg_miss_latency::total 118722.264055                       # average overall miss latency
system.l2.blocked_cycles::no_mshrs                  0                       # number of cycles access was blocked
system.l2.blocked_cycles::no_targets                0                       # number of cycles access was blocked
system.l2.blocked::no_mshrs                         0                       # number of cycles access was blocked
system.l2.blocked::no_targets                       0                       # number of cycles access was blocked
system.l2.avg_blocked_cycles::no_mshrs            nan                       # average number of cycles each access was blocked
system.l2.avg_blocked_cycles::no_targets          nan                       # average number of cycles each access was blocked
system.l2.writebacks::.writebacks               40236                       # number of writebacks
system.l2.writebacks::total                     40236                       # number of writebacks
system.l2.demand_mshr_hits::.cpu.data               6                       # number of demand (read+write) MSHR hits
system.l2.demand_mshr_hits::total                   6                       # number of demand (read+write) MSHR hits
system.l2.overall_mshr_hits::.cpu.data              6                       # number of overall MSHR hits
system.l2.overall_mshr_hits::total                  6                       # number of overall MSHR hits
system.l2.demand_mshr_misses::.cpu.inst           293                       # number of demand (read+write) MSHR misses
system.l2.demand_mshr_misses::.cpu.data         74072                       # number of demand (read+write) MSHR misses
system.l2.demand_mshr_misses::total             74365                       # number of demand (read+write) MSHR misses
system.l2.overall_mshr_misses::.cpu.inst          293                       # number of overall MSHR misses
system.l2.overall_mshr_misses::.cpu.data        74072                       # number of overall MSHR misses
system.l2.overall_mshr_misses::total            74365                       # number of overall MSHR misses
system.l2.demand_mshr_miss_latency::.cpu.inst     26030000                       # number of demand (read+write) MSHR miss cycles
system.l2.demand_mshr_miss_latency::.cpu.data   8059391000                       # number of demand (read+write) MSHR miss cycles
system.l2.demand_mshr_miss_latency::total   8085421000                       # number of demand (read+write) MSHR miss cycles
system.l2.overall_mshr_miss_latency::.cpu.inst     26030000                       # number of overall MSHR miss cycles
system.l2.overall_mshr_miss_latency::.cpu.data   8059391000                       # number of overall MSHR miss cycles
system.l2.overall_mshr_miss_latency::total   8085421000                       # number of overall MSHR miss cycles
system.l2.demand_mshr_miss_rate::.cpu.inst     0.659910                       # mshr miss rate for demand accesses
system.l2.demand_mshr_miss_rate::.cpu.data     0.081374                       # mshr miss rate for demand accesses
system.l2.demand_mshr_miss_rate::total       0.081656                       # mshr miss rate for demand accesses
system.l2.overall_mshr_miss_rate::.cpu.inst     0.659910                       # mshr miss rate for overall accesses
system.l2.overall_mshr_miss_rate::.cpu.data     0.081374                       # mshr miss rate for overall accesses
system.l2.overall_mshr_miss_rate::total      0.081656                       # mshr miss rate for overall accesses
system.l2.demand_avg_mshr_miss_latency::.cpu.inst 88839.590444                       # average overall mshr miss latency
system.l2.demand_avg_mshr_miss_latency::.cpu.data 108804.825035                       # average overall mshr miss latency
system.l2.demand_avg_mshr_miss_latency::total 108726.161501                       # average overall mshr miss latency
system.l2.overall_avg_mshr_miss_latency::.cpu.inst 88839.590444                       # average overall mshr miss latency
system.l2.overall_avg_mshr_miss_latency::.cpu.data 108804.825035                       # average overall mshr miss latency
system.l2.overall_avg_mshr_miss_latency::total 108726.161501                       # average overall mshr miss latency
system.l2.replacements                          58077                       # number of replacements
system.l2.WritebackDirty_hits::.writebacks       888288                       # number of WritebackDirty hits
system.l2.WritebackDirty_hits::total           888288                       # number of WritebackDirty hits
system.l2.WritebackDirty_accesses::.writebacks       888288                       # number of WritebackDirty accesses(hits+misses)
system.l2.WritebackDirty_accesses::total       888288                       # number of WritebackDirty accesses(hits+misses)
system.l2.WritebackClean_hits::.writebacks          301                       # number of WritebackClean hits
system.l2.WritebackClean_hits::total              301                       # number of WritebackClean hits
system.l2.WritebackClean_accesses::.writebacks          301                       # number of WritebackClean accesses(hits+misses)
system.l2.WritebackClean_accesses::total          301                       # number of WritebackClean accesses(hits+misses)
system.l2.ReadExReq_hits::.cpu.data            332821                       # number of ReadExReq hits
system.l2.ReadExReq_hits::total                332821                       # number of ReadExReq hits
system.l2.ReadExReq_misses::.cpu.data           54992                       # number of ReadExReq misses
system.l2.ReadExReq_misses::total               54992                       # number of ReadExReq misses
system.l2.ReadExReq_miss_latency::.cpu.data   6889931500                       # number of ReadExReq miss cycles
system.l2.ReadExReq_miss_latency::total    6889931500                       # number of ReadExReq miss cycles
system.l2.ReadExReq_accesses::.cpu.data        387813                       # number of ReadExReq accesses(hits+misses)
system.l2.ReadExReq_accesses::total            387813                       # number of ReadExReq accesses(hits+misses)
system.l2.ReadExReq_miss_rate::.cpu.data     0.141800                       # miss rate for ReadExReq accesses
system.l2.ReadExReq_miss_rate::total         0.141800                       # miss rate for ReadExReq accesses
system.l2.ReadExReq_avg_miss_latency::.cpu.data 125289.705775                       # average ReadExReq miss latency
system.l2.ReadExReq_avg_miss_latency::total 125289.705775                       # average ReadExReq miss latency
system.l2.ReadExReq_mshr_misses::.cpu.data        54992                       # number of ReadExReq MSHR misses
system.l2.ReadExReq_mshr_misses::total          54992                       # number of ReadExReq MSHR misses
system.l2.ReadExReq_mshr_miss_latency::.cpu.data   6340011500                       # number of ReadExReq MSHR miss cycles
system.l2.ReadExReq_mshr_miss_latency::total   6340011500                       # number of ReadExReq MSHR miss cycles
system.l2.ReadExReq_mshr_miss_rate::.cpu.data     0.141800                       # mshr miss rate for ReadExReq accesses
system.l2.ReadExReq_mshr_miss_rate::total     0.141800                       # mshr miss rate for ReadExReq accesses
system.l2.ReadExReq_avg_mshr_miss_latency::.cpu.data 115289.705775                       # average ReadExReq mshr miss latency
system.l2.ReadExReq_avg_mshr_miss_latency::total 115289.705775                       # average ReadExReq mshr miss latency
system.l2.ReadCleanReq_hits::.cpu.inst            151                       # number of ReadCleanReq hits
system.l2.ReadCleanReq_hits::total                151                       # number of ReadCleanReq hits
system.l2.ReadCleanReq_misses::.cpu.inst          293                       # number of ReadCleanReq misses
system.l2.ReadCleanReq_misses::total              293                       # number of ReadCleanReq misses
system.l2.ReadCleanReq_miss_latency::.cpu.inst     28960000                       # number of ReadCleanReq miss cycles
system.l2.ReadCleanReq_miss_latency::total     28960000                       # number of ReadCleanReq miss cycles
system.l2.ReadCleanReq_accesses::.cpu.inst          444                       # number of ReadCleanReq accesses(hits+misses)
system.l2.ReadCleanReq_accesses::total            444                       # number of ReadCleanReq accesses(hits+misses)
system.l2.ReadCleanReq_miss_rate::.cpu.inst     0.659910                       # miss rate for ReadCleanReq accesses
system.l2.ReadCleanReq_miss_rate::total      0.659910                       # miss rate for ReadCleanReq accesses
system.l2.ReadCleanReq_avg_miss_latency::.cpu.inst 98839.590444                       # average ReadCleanReq miss latency
system.l2.ReadCleanReq_avg_miss_latency::total 98839.590444                       # average ReadCleanReq miss latency
system.l2.ReadCleanReq_mshr_misses::.cpu.inst          293                       # number of ReadCleanReq MSHR misses
system.l2.ReadCleanReq_mshr_misses::total          293                       # number of ReadCleanReq MSHR misses
system.l2.ReadCleanReq_mshr_miss_latency::.cpu.inst     26030000                       # number of ReadCleanReq MSHR miss cycles
system.l2.ReadCleanReq_mshr_miss_latency::total     26030000                       # number of ReadCleanReq MSHR miss cycles
system.l2.ReadCleanReq_mshr_miss_rate::.cpu.inst     0.659910                       # mshr miss rate for ReadCleanReq accesses
system.l2.ReadCleanReq_mshr_miss_rate::total     0.659910                       # mshr miss rate for ReadCleanReq accesses
system.l2.ReadCleanReq_avg_mshr_miss_latency::.cpu.inst 88839.590444                       # average ReadCleanReq mshr miss latency
system.l2.ReadCleanReq_avg_mshr_miss_latency::total 88839.590444                       # average ReadCleanReq mshr miss latency
system.l2.ReadSharedReq_hits::.cpu.data        503367                       # number of ReadSharedReq hits
system.l2.ReadSharedReq_hits::total            503367                       # number of ReadSharedReq hits
system.l2.ReadSharedReq_misses::.cpu.data        19086                       # number of ReadSharedReq misses
system.l2.ReadSharedReq_misses::total           19086                       # number of ReadSharedReq misses
system.l2.ReadSharedReq_miss_latency::.cpu.data   1910602000                       # number of ReadSharedReq miss cycles
system.l2.ReadSharedReq_miss_latency::total   1910602000                       # number of ReadSharedReq miss cycles
system.l2.ReadSharedReq_accesses::.cpu.data       522453                       # number of ReadSharedReq accesses(hits+misses)
system.l2.ReadSharedReq_accesses::total        522453                       # number of ReadSharedReq accesses(hits+misses)
system.l2.ReadSharedReq_miss_rate::.cpu.data     0.036532                       # miss rate for ReadSharedReq accesses
system.l2.ReadSharedReq_miss_rate::total     0.036532                       # miss rate for ReadSharedReq accesses
system.l2.ReadSharedReq_avg_miss_latency::.cpu.data 100104.893639                       # average ReadSharedReq miss latency
system.l2.ReadSharedReq_avg_miss_latency::total 100104.893639                       # average ReadSharedReq miss latency
system.l2.ReadSharedReq_mshr_hits::.cpu.data            6                       # number of ReadSharedReq MSHR hits
system.l2.ReadSharedReq_mshr_hits::total            6                       # number of ReadSharedReq MSHR hits
system.l2.ReadSharedReq_mshr_misses::.cpu.data        19080                       # number of ReadSharedReq MSHR misses
system.l2.ReadSharedReq_mshr_misses::total        19080                       # number of ReadSharedReq MSHR misses
system.l2.ReadSharedReq_mshr_miss_latency::.cpu.data   1719379500                       # number of ReadSharedReq MSHR miss cycles
system.l2.ReadSharedReq_mshr_miss_latency::total   1719379500                       # number of ReadSharedReq MSHR miss cycles
system.l2.ReadSharedReq_mshr_miss_rate::.cpu.data     0.036520                       # mshr miss rate for ReadSharedReq accesses
system.l2.ReadSharedReq_mshr_miss_rate::total     0.036520                       # mshr miss rate for ReadSharedReq accesses
system.l2.ReadSharedReq_avg_mshr_miss_latency::.cpu.data 90114.229560                       # average ReadSharedReq mshr miss latency
system.l2.ReadSharedReq_avg_mshr_miss_latency::total 90114.229560                       # average ReadSharedReq mshr miss latency
system.l2.tags.pwrStateResidencyTicks::UNDEFINED  83537609500                       # Cumulative time (in ticks) in various power states
system.l2.tags.tagsinuse                 15865.843300                       # Cycle average of tags in use
system.l2.tags.total_refs                     1820872                       # Total number of references to valid blocks.
system.l2.tags.sampled_refs                     74461                       # Sample count of references to valid blocks.
system.l2.tags.avg_refs                     24.454036                       # Average number of references to valid blocks.
system.l2.tags.warmup_cycle                     92000                       # Cycle when the warmup percentage was hit.
system.l2.tags.occ_blocks::.writebacks      41.941940                       # Average occupied blocks per requestor
system.l2.tags.occ_blocks::.cpu.inst        53.442557                       # Average occupied blocks per requestor
system.l2.tags.occ_blocks::.cpu.data     15770.458804                       # Average occupied blocks per requestor
system.l2.tags.occ_percent::.writebacks      0.002560                       # Average percentage of cache occupancy
system.l2.tags.occ_percent::.cpu.inst        0.003262                       # Average percentage of cache occupancy
system.l2.tags.occ_percent::.cpu.data        0.962552                       # Average percentage of cache occupancy
system.l2.tags.occ_percent::total            0.968374                       # Average percentage of cache occupancy
system.l2.tags.occ_task_id_blocks::1024         16384                       # Occupied blocks per task id
system.l2.tags.age_task_id_blocks_1024::2            3                       # Occupied blocks per task id
system.l2.tags.age_task_id_blocks_1024::3          905                       # Occupied blocks per task id
system.l2.tags.age_task_id_blocks_1024::4        15476                       # Occupied blocks per task id
system.l2.tags.occ_task_id_percent::1024            1                       # Percentage of cache occupancy per task id
system.l2.tags.tag_accesses                  14641485                       # Number of tag accesses
system.l2.tags.data_accesses                 14641485                       # Number of data accesses
system.cpu_voltage_domain.voltage                   1                       # Voltage in Volts
system.mem_ctrls.pwrStateResidencyTicks::UNDEFINED  83537609500                       # Cumulative time (in ticks) in various power states
system.mem_ctrls.bytes_read::.cpu.inst          75008                       # Number of bytes read from this memory
system.mem_ctrls.bytes_read::.cpu.data       18962432                       # Number of bytes read from this memory
system.mem_ctrls.bytes_read::total           19037440                       # Number of bytes read from this memory
system.mem_ctrls.bytes_inst_read::.cpu.inst        75008                       # Number of instructions bytes read from this memory
system.mem_ctrls.bytes_inst_read::total         75008                       # Number of instructions bytes read from this memory
system.mem_ctrls.bytes_written::.writebacks     10300416                       # Number of bytes written to this memory
system.mem_ctrls.bytes_written::total        10300416                       # Number of bytes written to this memory
system.mem_ctrls.num_reads::.cpu.inst             293                       # Number of read requests responded to by this memory
system.mem_ctrls.num_reads::.cpu.data           74072                       # Number of read requests responded to by this memory
system.mem_ctrls.num_reads::total               74365                       # Number of read requests responded to by this memory
system.mem_ctrls.num_writes::.writebacks        40236                       # Number of write requests responded to by this memory
system.mem_ctrls.num_writes::total              40236                       # Number of write requests responded to by this memory
system.mem_ctrls.bw_read::.cpu.inst            897895                       # Total read bandwidth from this memory (bytes/s)
system.mem_ctrls.bw_read::.cpu.data         226992753                       # Total read bandwidth from this memory (bytes/s)
system.mem_ctrls.bw_read::total             227890648                       # Total read bandwidth from this memory (bytes/s)
system.mem_ctrls.bw_inst_read::.cpu.inst       897895                       # Instruction read bandwidth from this memory (bytes/s)
system.mem_ctrls.bw_inst_read::total           897895                       # Instruction read bandwidth from this memory (bytes/s)
system.mem_ctrls.bw_write::.writebacks      123302738                       # Write bandwidth from this memory (bytes/s)
system.mem_ctrls.bw_write::total            123302738                       # Write bandwidth from this memory (bytes/s)
system.mem_ctrls.bw_total::.writebacks      123302738                       # Total bandwidth to/from this memory (bytes/s)
system.mem_ctrls.bw_total::.cpu.inst           897895                       # Total bandwidth to/from this memory (bytes/s)
system.mem_ctrls.bw_total::.cpu.data        226992753                       # Total bandwidth to/from this memory (bytes/s)
system.mem_ctrls.bw_total::total            351193387                       # Total bandwidth to/from this memory (bytes/s)
system.mem_ctrls.avgPriority_.writebacks::samples    160944.00                       # Average QoS priority value for accepted requests
system.mem_ctrls.avgPriority_.cpu.inst::samples      1172.00                       # Average QoS priority value for accepted requests
system.mem_ctrls.avgPriority_.cpu.data::samples    296257.00                       # Average QoS priority value for accepted requests
system.mem_ctrls.priorityMinLatency      0.000000018750                       # per QoS priority minimum request to response latency (s)
system.mem_ctrls.priorityMaxLatency      0.008959536500                       # per QoS priority maximum request to response latency (s)
system.mem_ctrls.numReadWriteTurnArounds         9861                       # Number of turnarounds from READ to WRITE
system.mem_ctrls.numWriteReadTurnArounds         9861                       # Number of turnarounds from WRITE to READ
system.mem_ctrls.numStayReadState              411937                       # Number of times bus staying in READ state
system.mem_ctrls.numStayWriteState             151383                       # Number of times bus staying in WRITE state
system.mem_ctrls.readReqs                       74365                       # Number of read requests accepted
system.mem_ctrls.writeReqs                      40236                       # Number of write requests accepted
system.mem_ctrls.readBursts                    297460                       # Number of DRAM read bursts, including those serviced by the write queue
system.mem_ctrls.writeBursts                   160944                       # Number of DRAM write bursts, including those merged in the write queue
system.mem_ctrls.servicedByWrQ                     31                       # Number of DRAM read bursts serviced by the write queue
system.mem_ctrls.mergedWrBursts                     0                       # Number of DRAM write bursts merged with an existing one
system.mem_ctrls.neitherReadNorWriteReqs            0                       # Number of requests that are neither read nor write
system.mem_ctrls.perBankRdBursts::0             18912                       # Per bank write bursts
system.mem_ctrls.perBankRdBursts::1             18816                       # Per bank write bursts
system.mem_ctrls.perBankRdBursts::2             18764                       # Per bank write bursts
system.mem_ctrls.perBankRdBursts::3             18480                       # Per bank write bursts
system.mem_ctrls.perBankRdBursts::4             18584                       # Per bank write bursts
system.mem_ctrls.perBankRdBursts::5             18556                       # Per bank write bursts
system.mem_ctrls.perBankRdBursts::6             18472                       # Per bank write bursts
system.mem_ctrls.perBankRdBursts::7             18588                       # Per bank write bursts
system.mem_ctrls.perBankRdBursts::8             18496                       # Per bank write bursts
system.mem_ctrls.perBankRdBursts::9             18496                       # Per bank write bursts
system.mem_ctrls.perBankRdBursts::10            18676                       # Per bank write bursts
system.mem_ctrls.perBankRdBursts::11            18648                       # Per bank write bursts
system.mem_ctrls.perBankRdBursts::12            18612                       # Per bank write bursts
system.mem_ctrls.perBankRdBursts::13            18357                       # Per bank write bursts
system.mem_ctrls.perBankRdBursts::14            18368                       # Per bank write bursts
system.mem_ctrls.perBankRdBursts::15            18604                       # Per bank write bursts
system.mem_ctrls.perBankWrBursts::0             10112                       # Per bank write bursts
system.mem_ctrls.perBankWrBursts::1             10124                       # Per bank write bursts
system.mem_ctrls.perBankWrBursts::2             10184                       # Per bank write bursts
system.mem_ctrls.perBankWrBursts::3             10160                       # Per bank write bursts
system.mem_ctrls.perBankWrBursts::4             10104                       # Per bank write bursts
system.mem_ctrls.perBankWrBursts::5             10076                       # Per bank write bursts
system.mem_ctrls.perBankWrBursts::6             10052                       # Per bank write bursts
system.mem_ctrls.perBankWrBursts::7             10116                       # Per bank write bursts
system.mem_ctrls.perBankWrBursts::8             10028                       # Per bank write bursts
system.mem_ctrls.perBankWrBursts::9              9984                       # Per bank write bursts
system.mem_ctrls.perBankWrBursts::10             9984                       # Per bank write bursts
system.mem_ctrls.perBankWrBursts::11             9988                       # Per bank write bursts
system.mem_ctrls.perBankWrBursts::12             9980                       # Per bank write bursts
system.mem_ctrls.perBankWrBursts::13            10001                       # Per bank write bursts
system.mem_ctrls.perBankWrBursts::14             9992                       # Per bank write bursts
system.mem_ctrls.perBankWrBursts::15            10032                       # Per bank write bursts
system.mem_ctrls.avgRdQLen                       4.10                       # Average read queue length when enqueuing
system.mem_ctrls.avgWrQLen                      27.65                       # Average write queue length when enqueuing
system.mem_ctrls.totQLat                  11638914750                       # Total ticks spent queuing
system.mem_ctrls.totBusLat                 1487145000                       # Total ticks spent in databus transfers
system.mem_ctrls.totMemAccLat             17215708500                       # Total ticks spent from burst creation until serviced by the DRAM
system.mem_ctrls.avgQLat                     39131.74                       # Average queueing delay per DRAM burst
system.mem_ctrls.avgBusLat                    5000.00                       # Average bus latency per DRAM burst
system.mem_ctrls.avgMemAccLat                57881.74                       # Average memory access latency per DRAM burst
system.mem_ctrls.numRdRetry                         0                       # Number of times read queue was full causing retry
system.mem_ctrls.numWrRetry                         0                       # Number of times write queue was full causing retry
system.mem_ctrls.readRowHits                   267231                       # Number of row buffer hits during reads
system.mem_ctrls.writeRowHits                  144598                       # Number of row buffer hits during writes
system.mem_ctrls.readRowHitRate                 89.85                       # Row buffer hit rate for reads
system.mem_ctrls.writeRowHitRate                89.84                       # Row buffer hit rate for writes
system.mem_ctrls.readPktSize::0                     0                       # Read request sizes (log2)
system.mem_ctrls.readPktSize::1                     0                       # Read request sizes (log2)
system.mem_ctrls.readPktSize::2                     0                       # Read request sizes (log2)
system.mem_ctrls.readPktSize::3                     0                       # Read request sizes (log2)
system.mem_ctrls.readPktSize::4                     0                       # Read request sizes (log2)
system.mem_ctrls.readPktSize::5                     0                       # Read request sizes (log2)
system.mem_ctrls.readPktSize::6                297460                       # Read request sizes (log2)
system.mem_ctrls.writePktSize::0                    0                       # Write request sizes (log2)
system.mem_ctrls.writePktSize::1                    0                       # Write request sizes (log2)
system.mem_ctrls.writePktSize::2                    0                       # Write request sizes (log2)
system.mem_ctrls.writePktSize::3                    0                       # Write request sizes (log2)
system.mem_ctrls.writePktSize::4                    0                       # Write request sizes (log2)
system.mem_ctrls.writePktSize::5                    0                       # Write request sizes (log2)
system.mem_ctrls.writePktSize::6               160944                       # Write request sizes (log2)
system.mem_ctrls.rdQLenPdf::0                   58519                       # What read queue length does an incoming req see
system.mem_ctrls.rdQLenPdf::1                   58605                       # What read queue length does an incoming req see
system.mem_ctrls.rdQLenPdf::2                   58746                       # What read queue length does an incoming req see
system.mem_ctrls.rdQLenPdf::3                   59838                       # What read queue length does an incoming req see
system.mem_ctrls.rdQLenPdf::4                   15836                       # What read queue length does an incoming req see
system.mem_ctrls.rdQLenPdf::5                   15749                       # What read queue length does an incoming req see
system.mem_ctrls.rdQLenPdf::6                   15608                       # What read queue length does an incoming req see
system.mem_ctrls.rdQLenPdf::7                   14516                       # What read queue length does an incoming req see
system.mem_ctrls.rdQLenPdf::8                       3                       # What read queue length does an incoming req see
system.mem_ctrls.rdQLenPdf::9                       3                       # What read queue length does an incoming req see
system.mem_ctrls.rdQLenPdf::10                      3                       # What read queue length does an incoming req see
system.mem_ctrls.rdQLenPdf::11                      3                       # What read queue length does an incoming req see
system.mem_ctrls.rdQLenPdf::12                      0                       # What read queue length does an incoming req see
system.mem_ctrls.rdQLenPdf::13                      0                       # What read queue length does an incoming req see
system.mem_ctrls.rdQLenPdf::14                      0                       # What read queue length does an incoming req see
system.mem_ctrls.rdQLenPdf::15                      0                       # What read queue length does an incoming req see
system.mem_ctrls.rdQLenPdf::16                      0                       # What read queue length does an incoming req see
system.mem_ctrls.rdQLenPdf::17                      0                       # What read queue length does an incoming req see
system.mem_ctrls.rdQLenPdf::18                      0                       # What read queue length does an incoming req see
system.mem_ctrls.rdQLenPdf::19                      0                       # What read queue length does an incoming req see
system.mem_ctrls.rdQLenPdf::20                      0                       # What read queue length does an incoming req see
system.mem_ctrls.rdQLenPdf::21                      0                       # What read queue length does an incoming req see
system.mem_ctrls.rdQLenPdf::22                      0                       # What read queue length does an incoming req see
system.mem_ctrls.rdQLenPdf::23                      0                       # What read queue length does an incoming req see
system.mem_ctrls.rdQLenPdf::24                      0                       # What read queue length does an incoming req see
system.mem_ctrls.rdQLenPdf::25                      0                       # What read queue length does an incoming req see
system.mem_ctrls.rdQLenPdf::26                      0                       # What read queue length does an incoming req see
system.mem_ctrls.rdQLenPdf::27                      0                       # What read queue length does an incoming req see
system.mem_ctrls.rdQLenPdf::28                      0                       # What read queue length does an incoming req see
system.mem_ctrls.rdQLenPdf::29                      0                       # What read queue length does an incoming req see
system.mem_ctrls.rdQLenPdf::30                      0                       # What read queue length does an incoming req see
system.mem_ctrls.rdQLenPdf::31                      0                       # What read queue length does an incoming req see
system.mem_ctrls.wrQLenPdf::0                       1                       # What write queue length does an incoming req see
system.mem_ctrls.wrQLenPdf::1                       1                       # What write queue length does an incoming req see
system.mem_ctrls.wrQLenPdf::2                       1                       # What write queue length does an incoming req see
system.mem_ctrls.wrQLenPdf::3                       1                       # What write queue length does an incoming req see
system.mem_ctrls.wrQLenPdf::4                       1                       # What write queue length does an incoming req see
system.mem_ctrls.wrQLenPdf::5                       1                       # What write queue length does an incoming req see
system.mem_ctrls.wrQLenPdf::6                       1                       # What write queue length does an incoming req see
system.mem_ctrls.wrQLenPdf::7                       1                       # What write queue length does an incoming req see
system.mem_ctrls.wrQLenPdf::8                       1                       # What write queue length does an incoming req see
system.mem_ctrls.wrQLenPdf::9                       1                       # What write queue length does an incoming req see
system.mem_ctrls.wrQLenPdf::10                      1                       # What write queue length does an incoming req see
system.mem_ctrls.wrQLenPdf::11                      1                       # What write queue length does an incoming req see
system.mem_ctrls.wrQLenPdf::12                      1                       # What write queue length does an incoming req see
system.mem_ctrls.wrQLenPdf::13                      1                       # What write queue length does an incoming req see
system.mem_ctrls.wrQLenPdf::14                      1                       # What write queue length does an incoming req see
system.mem_ctrls.wrQLenPdf::15                    668                       # What write queue length does an incoming req see
system.mem_ctrls.wrQLenPdf::16                    690                       # What write queue length does an incoming req see
system.mem_ctrls.wrQLenPdf::17                   2085                       # What write queue length does an incoming req see
system.mem_ctrls.wrQLenPdf::18                   2938                       # What write queue length does an incoming req see
system.mem_ctrls.wrQLenPdf::19                   4389                       # What write queue length does an incoming req see
system.mem_ctrls.wrQLenPdf::20                   5435                       # What write queue length does an incoming req see
system.mem_ctrls.wrQLenPdf::21                   7238                       # What write queue length does an incoming req see
system.mem_ctrls.wrQLenPdf::22                   8277                       # What write queue length does an incoming req see
system.mem_ctrls.wrQLenPdf::23                   9754                       # What write queue length does an incoming req see
system.mem_ctrls.wrQLenPdf::24                  10577                       # What write queue length does an incoming req see
system.mem_ctrls.wrQLenPdf::25                  11558                       # What write queue length does an incoming req see
system.mem_ctrls.wrQLenPdf::26                  11744                       # What write queue length does an incoming req see
system.mem_ctrls.wrQLenPdf::27                  12296                       # What write queue length does an incoming req see
system.mem_ctrls.wrQLenPdf::28                  13187                       # What write queue length does an incoming req see
system.mem_ctrls.wrQLenPdf::29                  12373                       # What write queue length does an incoming req see
system.mem_ctrls.wrQLenPdf::30                  12082                       # What write queue length does an incoming req see
system.mem_ctrls.wrQLenPdf::31                  11419                       # What write queue length does an incoming req see
system.mem_ctrls.wrQLenPdf::32                  10302                       # What write queue length does an incoming req see
system.mem_ctrls.wrQLenPdf::33                   6946                       # What write queue length does an incoming req see
system.mem_ctrls.wrQLenPdf::34                   5170                       # What write queue length does an incoming req see
system.mem_ctrls.wrQLenPdf::35                   1696                       # What write queue length does an incoming req see
system.mem_ctrls.wrQLenPdf::36                     41                       # What write queue length does an incoming req see
system.mem_ctrls.wrQLenPdf::37                     32                       # What write queue length does an incoming req see
system.mem_ctrls.wrQLenPdf::38                     21                       # What write queue length does an incoming req see
system.mem_ctrls.wrQLenPdf::39                     11                       # What write queue length does an incoming req see
system.mem_ctrls.wrQLenPdf::40                      0                       # What write queue length does an incoming req see
system.mem_ctrls.wrQLenPdf::41                      0                       # What write queue length does an incoming req see
system.mem_ctrls.wrQLenPdf::42                      0                       # What write queue length does an incoming req see
system.mem_ctrls.wrQLenPdf::43                      0                       # What write queue length does an incoming req see
system.mem_ctrls.wrQLenPdf::44                      0                       # What write queue length does an incoming req see
system.mem_ctrls.wrQLenPdf::45                      0                       # What write queue length does an incoming req see
system.mem_ctrls.wrQLenPdf::46                      0                       # What write queue length does an incoming req see
system.mem_ctrls.wrQLenPdf::47                      0                       # What write queue length does an incoming req see
system.mem_ctrls.wrQLenPdf::48                      0                       # What write queue length does an incoming req see
system.mem_ctrls.wrQLenPdf::49                      0                       # What write queue length does an incoming req see
system.mem_ctrls.wrQLenPdf::50                      0                       # What write queue length does an incoming req see
system.mem_ctrls.wrQLenPdf::51                      0                       # What write queue length does an incoming req see
system.mem_ctrls.wrQLenPdf::52                      0                       # What write queue length does an incoming req see
system.mem_ctrls.wrQLenPdf::53                      0                       # What write queue length does an incoming req see
system.mem_ctrls.wrQLenPdf::54                      0                       # What write queue length does an incoming req see
system.mem_ctrls.wrQLenPdf::55                      0                       # What write queue length does an incoming req see
system.mem_ctrls.wrQLenPdf::56                      0                       # What write queue length does an incoming req see
system.mem_ctrls.wrQLenPdf::57                      0                       # What write queue length does an incoming req see
system.mem_ctrls.wrQLenPdf::58                      0                       # What write queue length does an incoming req see
system.mem_ctrls.wrQLenPdf::59                      0                       # What write queue length does an incoming req see
system.mem_ctrls.wrQLenPdf::60                      0                       # What write queue length does an incoming req see
system.mem_ctrls.wrQLenPdf::61                      0                       # What write queue length does an incoming req see
system.mem_ctrls.wrQLenPdf::62                      0                       # What write queue length does an incoming req see
system.mem_ctrls.wrQLenPdf::63                      0                       # What write queue length does an incoming req see
system.mem_ctrls.bytesPerActivate::samples        46517                       # Bytes accessed per row activation
system.mem_ctrls.bytesPerActivate::mean    630.611260                       # Bytes accessed per row activation
system.mem_ctrls.bytesPerActivate::gmean   519.190801                       # Bytes accessed per row activation
system.mem_ctrls.bytesPerActivate::stdev   343.468261                       # Bytes accessed per row activation
system.mem_ctrls.bytesPerActivate::0-127          766      1.65%      1.65% # Bytes accessed per row activation
system.mem_ctrls.bytesPerActivate::128-255         1154      2.48%      4.13% # Bytes accessed per row activation
system.mem_ctrls.bytesPerActivate::256-383        15218     32.71%     36.84% # Bytes accessed per row activation
system.mem_ctrls.bytesPerActivate::384-511         1183      2.54%     39.39% # Bytes accessed per row activation
system.mem_ctrls.bytesPerActivate::512-639         5647     12.14%     51.53% # Bytes accessed per row activation
system.mem_ctrls.bytesPerActivate::640-767         1130      2.43%     53.95% # Bytes accessed per row activation
system.mem_ctrls.bytesPerActivate::768-895         3753      8.07%     62.02% # Bytes accessed per row activation
system.mem_ctrls.bytesPerActivate::896-1023          701      1.51%     63.53% # Bytes accessed per row activation
system.mem_ctrls.bytesPerActivate::1024-1151        16965     36.47%    100.00% # Bytes accessed per row activation
system.mem_ctrls.bytesPerActivate::total        46517                       # Bytes accessed per row activation
system.mem_ctrls.rdPerTurnAround::samples         9861                       # Reads before turning the bus around for writes
system.mem_ctrls.rdPerTurnAround::mean      30.161343                       # Reads before turning the bus around for writes
system.mem_ctrls.rdPerTurnAround::gmean     21.856540                       # Reads before turning the bus around for writes
system.mem_ctrls.rdPerTurnAround::stdev    177.690400                       # Reads before turning the bus around for writes
system.mem_ctrls.rdPerTurnAround::0-1023         9859     99.98%     99.98% # Reads before turning the bus around for writes
system.mem_ctrls.rdPerTurnAround::1024-2047            1      0.01%     99.99% # Reads before turning the bus around for writes
system.mem_ctrls.rdPerTurnAround::16384-17407            1      0.01%    100.00% # Reads before turning the bus around for writes
system.mem_ctrls.rdPerTurnAround::total          9861                       # Reads before turning the bus around for writes
system.mem_ctrls.wrPerTurnAround::samples         9861                       # Writes before turning the bus around for reads
system.mem_ctrls.wrPerTurnAround::mean      16.318528                       # Writes before turning the bus around for reads
system.mem_ctrls.wrPerTurnAround::gmean     16.285594                       # Writes before turning the bus around for reads
system.mem_ctrls.wrPerTurnAround::stdev      1.110274                       # Writes before turning the bus around for reads
system.mem_ctrls.wrPerTurnAround::16             9086     92.14%     92.14% # Writes before turning the bus around for reads
system.mem_ctrls.wrPerTurnAround::17                6      0.06%     92.20% # Writes before turning the bus around for reads
system.mem_ctrls.wrPerTurnAround::18               24      0.24%     92.44% # Writes before turning the bus around for reads
[...]
system.cpu.icache.ReadReq_avg_miss_latency::.cpu.inst 72050.675676                       # average ReadReq miss latency
system.cpu.icache.ReadReq_avg_miss_latency::total 72050.675676                       # average ReadReq miss latency
system.cpu.icache.ReadReq_mshr_misses::.cpu.inst          444                       # number of ReadReq MSHR misses
system.cpu.icache.ReadReq_mshr_misses::total          444                       # number of ReadReq MSHR misses
system.cpu.icache.ReadReq_mshr_miss_latency::.cpu.inst     31546500                       # number of ReadReq MSHR miss cycles
system.cpu.icache.ReadReq_mshr_miss_latency::total     31546500                       # number of ReadReq MSHR miss cycles
system.cpu.icache.ReadReq_mshr_miss_rate::.cpu.inst     0.000063                       # mshr miss rate for ReadReq accesses
system.cpu.icache.ReadReq_mshr_miss_rate::total     0.000063                       # mshr miss rate for ReadReq accesses
system.cpu.icache.ReadReq_avg_mshr_miss_latency::.cpu.inst 71050.675676                       # average ReadReq mshr miss latency
system.cpu.icache.ReadReq_avg_mshr_miss_latency::total 71050.675676                       # average ReadReq mshr miss latency
system.cpu.icache.tags.pwrStateResidencyTicks::UNDEFINED  83537609500                       # Cumulative time (in ticks) in various power states
system.cpu.icache.tags.tagsinuse           112.584797                       # Cycle average of tags in use
system.cpu.icache.tags.total_refs             7019795                       # Total number of references to valid blocks.
system.cpu.icache.tags.sampled_refs               444                       # Sample count of references to valid blocks.
system.cpu.icache.tags.avg_refs          15810.349099                       # Average number of references to valid blocks.
system.cpu.icache.tags.warmup_cycle            102500                       # Cycle when the warmup percentage was hit.
system.cpu.icache.tags.occ_blocks::.cpu.inst   112.584797                       # Average occupied blocks per requestor
system.cpu.icache.tags.occ_percent::.cpu.inst     0.879569                       # Average percentage of cache occupancy
system.cpu.icache.tags.occ_percent::total     0.879569                       # Average percentage of cache occupancy
system.cpu.icache.tags.occ_task_id_blocks::1024          122                       # Occupied blocks per task id
system.cpu.icache.tags.age_task_id_blocks_1024::3           24                       # Occupied blocks per task id
system.cpu.icache.tags.age_task_id_blocks_1024::4           98                       # Occupied blocks per task id
system.cpu.icache.tags.occ_task_id_percent::1024     0.953125                       # Percentage of cache occupancy per task id
system.cpu.icache.tags.tag_accesses          14040034                       # Number of tag accesses
system.cpu.icache.tags.data_accesses         14040034                       # Number of data accesses
system.cpu.dtb.walker.pwrStateResidencyTicks::UNDEFINED  83537609500                       # Cumulative time (in ticks) in various power states
system.cpu.dtb.stage2_mmu.stage2_tlb.walker.pwrStateResidencyTicks::UNDEFINED  83537609500                       # Cumulative time (in ticks) in various power states
system.cpu.dcache.pwrStateResidencyTicks::UNDEFINED  83537609500                       # Cumulative time (in ticks) in various power states
system.cpu.dcache.demand_hits::.cpu.data     51123024                       # number of demand (read+write) hits
system.cpu.dcache.demand_hits::total         51123024                       # number of demand (read+write) hits
system.cpu.dcache.overall_hits::.cpu.data     51124288                       # number of overall hits
system.cpu.dcache.overall_hits::total        51124288                       # number of overall hits
system.cpu.dcache.demand_misses::.cpu.data       926751                       # number of demand (read+write) misses
system.cpu.dcache.demand_misses::total         926751                       # number of demand (read+write) misses
system.cpu.dcache.overall_misses::.cpu.data       933908                       # number of overall misses
system.cpu.dcache.overall_misses::total        933908                       # number of overall misses
system.cpu.dcache.demand_miss_latency::.cpu.data  21617194500                       # number of demand (read+write) miss cycles
system.cpu.dcache.demand_miss_latency::total  21617194500                       # number of demand (read+write) miss cycles
system.cpu.dcache.overall_miss_latency::.cpu.data  21617194500                       # number of overall miss cycles
system.cpu.dcache.overall_miss_latency::total  21617194500                       # number of overall miss cycles
system.cpu.dcache.demand_accesses::.cpu.data     52049775                       # number of demand (read+write) accesses
system.cpu.dcache.demand_accesses::total     52049775                       # number of demand (read+write) accesses
system.cpu.dcache.overall_accesses::.cpu.data     52058196                       # number of overall (read+write) accesses
system.cpu.dcache.overall_accesses::total     52058196                       # number of overall (read+write) accesses
system.cpu.dcache.demand_miss_rate::.cpu.data     0.017805                       # miss rate for demand accesses
system.cpu.dcache.demand_miss_rate::total     0.017805                       # miss rate for demand accesses
system.cpu.dcache.overall_miss_rate::.cpu.data     0.017940                       # miss rate for overall accesses
system.cpu.dcache.overall_miss_rate::total     0.017940                       # miss rate for overall accesses
system.cpu.dcache.demand_avg_miss_latency::.cpu.data 23325.784920                       # average overall miss latency
system.cpu.dcache.demand_avg_miss_latency::total 23325.784920                       # average overall miss latency
system.cpu.dcache.overall_avg_miss_latency::.cpu.data 23147.027866                       # average overall miss latency
system.cpu.dcache.overall_avg_miss_latency::total 23147.027866                       # average overall miss latency
system.cpu.dcache.blocked_cycles::no_mshrs            0                       # number of cycles access was blocked
system.cpu.dcache.blocked_cycles::no_targets            0                       # number of cycles access was blocked
system.cpu.dcache.blocked::no_mshrs                 0                       # number of cycles access was blocked
system.cpu.dcache.blocked::no_targets               0                       # number of cycles access was blocked
system.cpu.dcache.avg_blocked_cycles::no_mshrs          nan                       # average number of cycles each access was blocked
system.cpu.dcache.avg_blocked_cycles::no_targets          nan                       # average number of cycles each access was blocked
system.cpu.dcache.writebacks::.writebacks       888288                       # number of writebacks
system.cpu.dcache.writebacks::total            888288                       # number of writebacks
system.cpu.dcache.demand_mshr_hits::.cpu.data        18465                       # number of demand (read+write) MSHR hits
system.cpu.dcache.demand_mshr_hits::total        18465                       # number of demand (read+write) MSHR hits
system.cpu.dcache.overall_mshr_hits::.cpu.data        18465                       # number of overall MSHR hits
system.cpu.dcache.overall_mshr_hits::total        18465                       # number of overall MSHR hits
system.cpu.dcache.demand_mshr_misses::.cpu.data       908286                       # number of demand (read+write) MSHR misses
system.cpu.dcache.demand_mshr_misses::total       908286                       # number of demand (read+write) MSHR misses
system.cpu.dcache.overall_mshr_misses::.cpu.data       910266                       # number of overall MSHR misses
system.cpu.dcache.overall_mshr_misses::total       910266                       # number of overall MSHR misses
system.cpu.dcache.demand_mshr_miss_latency::.cpu.data  19108064000                       # number of demand (read+write) MSHR miss cycles
system.cpu.dcache.demand_mshr_miss_latency::total  19108064000                       # number of demand (read+write) MSHR miss cycles
system.cpu.dcache.overall_mshr_miss_latency::.cpu.data  19285582000                       # number of overall MSHR miss cycles
system.cpu.dcache.overall_mshr_miss_latency::total  19285582000                       # number of overall MSHR miss cycles
system.cpu.dcache.demand_mshr_miss_rate::.cpu.data     0.017450                       # mshr miss rate for demand accesses
system.cpu.dcache.demand_mshr_miss_rate::total     0.017450                       # mshr miss rate for demand accesses
system.cpu.dcache.overall_mshr_miss_rate::.cpu.data     0.017486                       # mshr miss rate for overall accesses
system.cpu.dcache.overall_mshr_miss_rate::total     0.017486                       # mshr miss rate for overall accesses
system.cpu.dcache.demand_avg_mshr_miss_latency::.cpu.data 21037.497000                       # average overall mshr miss latency
system.cpu.dcache.demand_avg_mshr_miss_latency::total 21037.497000                       # average overall mshr miss latency
system.cpu.dcache.overall_avg_mshr_miss_latency::.cpu.data 21186.754202                       # average overall mshr miss latency
system.cpu.dcache.overall_avg_mshr_miss_latency::total 21186.754202                       # average overall mshr miss latency
system.cpu.dcache.replacements                 910137                       # number of replacements
system.cpu.dcache.ReadReq_hits::.cpu.data     40577245                       # number of ReadReq hits
system.cpu.dcache.ReadReq_hits::total        40577245                       # number of ReadReq hits
system.cpu.dcache.ReadReq_misses::.cpu.data       522444                       # number of ReadReq misses
system.cpu.dcache.ReadReq_misses::total        522444                       # number of ReadReq misses
system.cpu.dcache.ReadReq_miss_latency::.cpu.data   8807970000                       # number of ReadReq miss cycles
system.cpu.dcache.ReadReq_miss_latency::total   8807970000                       # number of ReadReq miss cycles
system.cpu.dcache.ReadReq_accesses::.cpu.data     41099689                       # number of ReadReq accesses(hits+misses)
system.cpu.dcache.ReadReq_accesses::total     41099689                       # number of ReadReq accesses(hits+misses)
system.cpu.dcache.ReadReq_miss_rate::.cpu.data     0.012712                       # miss rate for ReadReq accesses
system.cpu.dcache.ReadReq_miss_rate::total     0.012712                       # miss rate for ReadReq accesses
system.cpu.dcache.ReadReq_avg_miss_latency::.cpu.data 16859.165767                       # average ReadReq miss latency
system.cpu.dcache.ReadReq_avg_miss_latency::total 16859.165767                       # average ReadReq miss latency
system.cpu.dcache.ReadReq_mshr_hits::.cpu.data         1971                       # number of ReadReq MSHR hits
system.cpu.dcache.ReadReq_mshr_hits::total         1971                       # number of ReadReq MSHR hits
system.cpu.dcache.ReadReq_mshr_misses::.cpu.data       520473                       # number of ReadReq MSHR misses
system.cpu.dcache.ReadReq_mshr_misses::total       520473                       # number of ReadReq MSHR misses
system.cpu.dcache.ReadReq_mshr_miss_latency::.cpu.data   8134977500                       # number of ReadReq MSHR miss cycles
system.cpu.dcache.ReadReq_mshr_miss_latency::total   8134977500                       # number of ReadReq MSHR miss cycles
system.cpu.dcache.ReadReq_mshr_miss_rate::.cpu.data     0.012664                       # mshr miss rate for ReadReq accesses
system.cpu.dcache.ReadReq_mshr_miss_rate::total     0.012664                       # mshr miss rate for ReadReq accesses
system.cpu.dcache.ReadReq_avg_mshr_miss_latency::.cpu.data 15629.970239                       # average ReadReq mshr miss latency
system.cpu.dcache.ReadReq_avg_mshr_miss_latency::total 15629.970239                       # average ReadReq mshr miss latency
system.cpu.dcache.WriteReq_hits::.cpu.data     10545779                       # number of WriteReq hits
system.cpu.dcache.WriteReq_hits::total       10545779                       # number of WriteReq hits
system.cpu.dcache.WriteReq_misses::.cpu.data       404307                       # number of WriteReq misses
system.cpu.dcache.WriteReq_misses::total       404307                       # number of WriteReq misses
system.cpu.dcache.WriteReq_miss_latency::.cpu.data  12809224500                       # number of WriteReq miss cycles
system.cpu.dcache.WriteReq_miss_latency::total  12809224500                       # number of WriteReq miss cycles
system.cpu.dcache.WriteReq_accesses::.cpu.data     10950086                       # number of WriteReq accesses(hits+misses)
system.cpu.dcache.WriteReq_accesses::total     10950086                       # number of WriteReq accesses(hits+misses)
system.cpu.dcache.WriteReq_miss_rate::.cpu.data     0.036923                       # miss rate for WriteReq accesses
system.cpu.dcache.WriteReq_miss_rate::total     0.036923                       # miss rate for WriteReq accesses
system.cpu.dcache.WriteReq_avg_miss_latency::.cpu.data 31681.926111                       # average WriteReq miss latency
system.cpu.dcache.WriteReq_avg_miss_latency::total 31681.926111                       # average WriteReq miss latency
system.cpu.dcache.WriteReq_mshr_hits::.cpu.data        16494                       # number of WriteReq MSHR hits
system.cpu.dcache.WriteReq_mshr_hits::total        16494                       # number of WriteReq MSHR hits
system.cpu.dcache.WriteReq_mshr_misses::.cpu.data       387813                       # number of WriteReq MSHR misses
system.cpu.dcache.WriteReq_mshr_misses::total       387813                       # number of WriteReq MSHR misses
system.cpu.dcache.WriteReq_mshr_miss_latency::.cpu.data  10973086500                       # number of WriteReq MSHR miss cycles
system.cpu.dcache.WriteReq_mshr_miss_latency::total  10973086500                       # number of WriteReq MSHR miss cycles
system.cpu.dcache.WriteReq_mshr_miss_rate::.cpu.data     0.035416                       # mshr miss rate for WriteReq accesses
system.cpu.dcache.WriteReq_mshr_miss_rate::total     0.035416                       # mshr miss rate for WriteReq accesses
system.cpu.dcache.WriteReq_avg_mshr_miss_latency::.cpu.data 28294.787694                       # average WriteReq mshr miss latency
system.cpu.dcache.WriteReq_avg_mshr_miss_latency::total 28294.787694                       # average WriteReq mshr miss latency
system.cpu.dcache.SoftPFReq_hits::.cpu.data         1264                       # number of SoftPFReq hits
system.cpu.dcache.SoftPFReq_hits::total          1264                       # number of SoftPFReq hits
system.cpu.dcache.SoftPFReq_misses::.cpu.data         7157                       # number of SoftPFReq misses
system.cpu.dcache.SoftPFReq_misses::total         7157                       # number of SoftPFReq misses
system.cpu.dcache.SoftPFReq_accesses::.cpu.data         8421                       # number of SoftPFReq accesses(hits+misses)
system.cpu.dcache.SoftPFReq_accesses::total         8421                       # number of SoftPFReq accesses(hits+misses)
system.cpu.dcache.SoftPFReq_miss_rate::.cpu.data     0.849899                       # miss rate for SoftPFReq accesses
system.cpu.dcache.SoftPFReq_miss_rate::total     0.849899                       # miss rate for SoftPFReq accesses
system.cpu.dcache.SoftPFReq_mshr_misses::.cpu.data         1980                       # number of SoftPFReq MSHR misses
system.cpu.dcache.SoftPFReq_mshr_misses::total         1980                       # number of SoftPFReq MSHR misses
system.cpu.dcache.SoftPFReq_mshr_miss_latency::.cpu.data    177518000                       # number of SoftPFReq MSHR miss cycles
system.cpu.dcache.SoftPFReq_mshr_miss_latency::total    177518000                       # number of SoftPFReq MSHR miss cycles
system.cpu.dcache.SoftPFReq_mshr_miss_rate::.cpu.data     0.235126                       # mshr miss rate for SoftPFReq accesses
system.cpu.dcache.SoftPFReq_mshr_miss_rate::total     0.235126                       # mshr miss rate for SoftPFReq accesses
system.cpu.dcache.SoftPFReq_avg_mshr_miss_latency::.cpu.data 89655.555556                       # average SoftPFReq mshr miss latency
system.cpu.dcache.SoftPFReq_avg_mshr_miss_latency::total 89655.555556                       # average SoftPFReq mshr miss latency
system.cpu.dcache.LoadLockedReq_hits::.cpu.data           38                       # number of LoadLockedReq hits
system.cpu.dcache.LoadLockedReq_hits::total           38                       # number of LoadLockedReq hits
system.cpu.dcache.LoadLockedReq_accesses::.cpu.data           38                       # number of LoadLockedReq accesses(hits+misses)
system.cpu.dcache.LoadLockedReq_accesses::total           38                       # number of LoadLockedReq accesses(hits+misses)
system.cpu.dcache.StoreCondReq_hits::.cpu.data           38                       # number of StoreCondReq hits
system.cpu.dcache.StoreCondReq_hits::total           38                       # number of StoreCondReq hits
system.cpu.dcache.StoreCondReq_accesses::.cpu.data           38                       # number of StoreCondReq accesses(hits+misses)
system.cpu.dcache.StoreCondReq_accesses::total           38                       # number of StoreCondReq accesses(hits+misses)
system.cpu.dcache.tags.pwrStateResidencyTicks::UNDEFINED  83537609500                       # Cumulative time (in ticks) in various power states
system.cpu.dcache.tags.tagsinuse           126.840231                       # Cycle average of tags in use
system.cpu.dcache.tags.total_refs            52034629                       # Total number of references to valid blocks.
system.cpu.dcache.tags.sampled_refs            910265                       # Sample count of references to valid blocks.
system.cpu.dcache.tags.avg_refs             57.164264                       # Average number of references to valid blocks.
system.cpu.dcache.tags.warmup_cycle            210500                       # Cycle when the warmup percentage was hit.
system.cpu.dcache.tags.occ_blocks::.cpu.data   126.840231                       # Average occupied blocks per requestor
system.cpu.dcache.tags.occ_percent::.cpu.data     0.990939                       # Average percentage of cache occupancy
system.cpu.dcache.tags.occ_percent::total     0.990939                       # Average percentage of cache occupancy
system.cpu.dcache.tags.occ_task_id_blocks::1024          128                       # Occupied blocks per task id
system.cpu.dcache.tags.age_task_id_blocks_1024::0          126                       # Occupied blocks per task id
system.cpu.dcache.tags.age_task_id_blocks_1024::1            1                       # Occupied blocks per task id
system.cpu.dcache.tags.age_task_id_blocks_1024::2            1                       # Occupied blocks per task id
system.cpu.dcache.tags.occ_task_id_percent::1024            1                       # Percentage of cache occupancy per task id
system.cpu.dcache.tags.tag_accesses         209143353                       # Number of tag accesses
system.cpu.dcache.tags.data_accesses        209143353                       # Number of data accesses
system.cpu.itb.walker.pwrStateResidencyTicks::UNDEFINED  83537609500                       # Cumulative time (in ticks) in various power states
system.cpu.itb.stage2_mmu.stage2_tlb.walker.pwrStateResidencyTicks::UNDEFINED  83537609500                       # Cumulative time (in ticks) in various power states

---------- End Simulation Statistics   ----------
