
---------- Begin Simulation Statistics ----------
final_tick                               101706845000                       # Number of ticks from beginning of simulation (restored from checkpoints and never reset)
host_inst_rate                                 490244                       # Simulator instruction rate (inst/s)
host_mem_usage                                 684548                       # Number of bytes of host memory used
host_op_rate                                   490261                       # Simulator op (including micro ops) rate (op/s)
host_seconds                                   203.98                       # Real time elapsed on the host
host_tick_rate                              498611193                       # Simulator tick rate (ticks/s)
sim_freq                                 1000000000000                       # Frequency of simulated ticks
sim_insts                                   100000000                       # Number of instructions simulated
sim_ops                                     100003637                       # Number of ops (including micro ops) simulated
sim_seconds                                  0.101707                       # Number of seconds simulated
sim_ticks                                101706845000                       # Number of ticks simulated
system.cpu.branchPred.BTBCorrect                    0                       # Number of correct BTB predictions (this stat may not work properly.
system.cpu.branchPred.BTBHitPct             99.493449                       # BTB Hit Percentage
system.cpu.branchPred.BTBHits                  596900                       # Number of BTB hits
system.cpu.branchPred.BTBLookups               599939                       # Number of BTB lookups
system.cpu.branchPred.RASInCorrect                  7                       # Number of incorrect RAS predictions.
system.cpu.branchPred.condIncorrect               866                       # Number of conditional branches incorrect
system.cpu.branchPred.condPredicted            600006                       # Number of conditional branches predicted
system.cpu.branchPred.indirectHits                167                       # Number of indirect target hits.
system.cpu.branchPred.indirectLookups             413                       # Number of indirect predictor lookups.
system.cpu.branchPred.indirectMisses              246                       # Number of indirect misses.
system.cpu.branchPred.lookups                  602204                       # Number of BP lookups
system.cpu.branchPred.usedRAS                     609                       # Number of times the RAS was used to get a target.
system.cpu.branchPredindirectMispredicted          109                       # Number of mispredicted indirect branches.
system.cpu.committedInsts                   100000000                       # Number of instructions committed
system.cpu.committedOps                     100003637                       # Number of ops (including micro ops) committed
system.cpu.cpi                               2.034137                       # CPI: cycles per instruction
system.cpu.discardedOps                          2702                       # Number of ops (including micro ops) which were discarded before commit
system.cpu.dtb.accesses                             0                       # DTB accesses
system.cpu.dtb.align_faults                         0                       # Number of TLB faults due to alignment restrictions
system.cpu.dtb.domain_faults                        0                       # Number of TLB faults due to domain restrictions
system.cpu.dtb.flush_entries                        0                       # Number of entries that have been flushed from TLB
system.cpu.dtb.flush_tlb                            0                       # Number of times complete TLB was flushed
system.cpu.dtb.flush_tlb_asid                       0                       # Number of times TLB was flushed by ASID
system.cpu.dtb.flush_tlb_mva                        0                       # Number of times TLB was flushed by MVA
system.cpu.dtb.flush_tlb_mva_asid                   0                       # Number of times TLB was flushed by MVA & ASID
system.cpu.dtb.hits                                 0                       # DTB hits
system.cpu.dtb.inst_accesses                        0                       # ITB inst accesses
system.cpu.dtb.inst_hits                            0                       # ITB inst hits
system.cpu.dtb.inst_misses                          0                       # ITB inst misses
system.cpu.dtb.misses                               0                       # DTB misses
system.cpu.dtb.perms_faults                         0                       # Number of TLB faults due to permissions restrictions
system.cpu.dtb.prefetch_faults                      0                       # Number of TLB faults due to prefetch
system.cpu.dtb.read_accesses                        0                       # DTB read accesses
system.cpu.dtb.read_hits                            0                       # DTB read hits
system.cpu.dtb.read_misses                          0                       # DTB read misses
system.cpu.dtb.stage2_mmu.stage2_tlb.accesses            0                       # DTB accesses
system.cpu.dtb.stage2_mmu.stage2_tlb.align_faults            0                       # Number of TLB faults due to alignment restrictions
system.cpu.dtb.stage2_mmu.stage2_tlb.domain_faults            0                       # Number of TLB faults due to domain restrictions
system.cpu.dtb.stage2_mmu.stage2_tlb.flush_entries            0                       # Number of entries that have been flushed from TLB
system.cpu.dtb.stage2_mmu.stage2_tlb.flush_tlb            0                       # Number of times complete TLB was flushed
system.cpu.dtb.stage2_mmu.stage2_tlb.flush_tlb_asid            0                       # Number of times TLB was flushed by ASID
system.cpu.dtb.stage2_mmu.stage2_tlb.flush_tlb_mva            0                       # Number of times TLB was flushed by MVA
system.cpu.dtb.stage2_mmu.stage2_tlb.flush_tlb_mva_asid            0                       # Number of times TLB was flushed by MVA & ASID
system.cpu.dtb.stage2_mmu.stage2_tlb.hits            0                       # DTB hits
system.cpu.dtb.stage2_mmu.stage2_tlb.inst_accesses            0                       # ITB inst accesses
system.cpu.dtb.stage2_mmu.stage2_tlb.inst_hits            0                       # ITB inst hits
system.cpu.dtb.stage2_mmu.stage2_tlb.inst_misses            0                       # ITB inst misses
system.cpu.dtb.stage2_mmu.stage2_tlb.misses            0                       # DTB misses
system.cpu.dtb.stage2_mmu.stage2_tlb.perms_faults            0                       # Number of TLB faults due to permissions restrictions
system.cpu.dtb.stage2_mmu.stage2_tlb.prefetch_faults            0                       # Number of TLB faults due to prefetch
system.cpu.dtb.stage2_mmu.stage2_tlb.read_accesses            0                       # DTB read accesses
system.cpu.dtb.stage2_mmu.stage2_tlb.read_hits            0                       # DTB read hits
system.cpu.dtb.stage2_mmu.stage2_tlb.read_misses            0                       # DTB read misses
system.cpu.dtb.stage2_mmu.stage2_tlb.walker.walkRequestOrigin_Requested::Data            0                       # Table walker requests started/completed, data/inst
system.cpu.dtb.stage2_mmu.stage2_tlb.walker.walkRequestOrigin_Requested::Inst            0                       # Table walker requests started/completed, data/inst
system.cpu.dtb.stage2_mmu.stage2_tlb.walker.walkRequestOrigin_Requested::total            0                       # Table walker requests started/completed, data/inst
system.cpu.dtb.stage2_mmu.stage2_tlb.walker.walkRequestOrigin_Completed::Data            0                       # Table walker requests started/completed, data/inst
system.cpu.dtb.stage2_mmu.stage2_tlb.walker.walkRequestOrigin_Completed::Inst            0                       # Table walker requests started/completed, data/inst
system.cpu.dtb.stage2_mmu.stage2_tlb.walker.walkRequestOrigin_Completed::total            0                       # Table walker requests started/completed, data/inst
system.cpu.dtb.stage2_mmu.stage2_tlb.walker.walkRequestOrigin::total            0                       # Table walker requests started/completed, data/inst
system.cpu.dtb.stage2_mmu.stage2_tlb.walker.walks            0                       # Table walker walks requested
system.cpu.dtb.stage2_mmu.stage2_tlb.write_accesses            0                       # DTB write accesses
system.cpu.dtb.stage2_mmu.stage2_tlb.write_hits            0                       # DTB write hits
system.cpu.dtb.stage2_mmu.stage2_tlb.write_misses            0                       # DTB write misses
system.cpu.dtb.walker.walkRequestOrigin_Requested::Data            0                       # Table walker requests started/completed, data/inst
system.cpu.dtb.walker.walkRequestOrigin_Requested::Inst            0                       # Table walker requests started/completed, data/inst
system.cpu.dtb.walker.walkRequestOrigin_Requested::total            0                       # Table walker requests started/completed, data/inst
system.cpu.dtb.walker.walkRequestOrigin_Completed::Data            0                       # Table walker requests started/completed, data/inst
system.cpu.dtb.walker.walkRequestOrigin_Completed::Inst            0                       # Table walker requests started/completed, data/inst
system.cpu.dtb.walker.walkRequestOrigin_Completed::total            0                       # Table walker requests started/completed, data/inst
system.cpu.dtb.walker.walkRequestOrigin::total            0                       # Table walker requests started/completed, data/inst
system.cpu.dtb.walker.walks                         0                       # Table walker walks requested
system.cpu.dtb.write_accesses                       0                       # DTB write accesses
system.cpu.dtb.write_hits                           0                       # DTB write hits
system.cpu.dtb.write_misses                         0                       # DTB write misses
system.cpu.fetch2.amo_instructions                  0                       # Number of memory atomic instructions successfully decoded
system.cpu.fetch2.fp_instructions                   0                       # Number of floating point instructions successfully decoded
system.cpu.fetch2.int_instructions           49412147                       # Number of integer instructions successfully decoded
system.cpu.fetch2.load_instructions          36901164                       # Number of memory load instructions successfully decoded
system.cpu.fetch2.store_instructions         13094557                       # Number of memory store instructions successfully decoded
system.cpu.fetch2.vec_instructions                  0                       # Number of SIMD instructions successfully decoded
system.cpu.idleCycles                        89638467                       # Total number of cycles that the object has spent stopped
system.cpu.ipc                               0.491609                       # IPC: instructions per cycle
system.cpu.itb.accesses                             0                       # DTB accesses
system.cpu.itb.align_faults                         0                       # Number of TLB faults due to alignment restrictions
system.cpu.itb.domain_faults                        0                       # Number of TLB faults due to domain restrictions
system.cpu.itb.flush_entries                        0                       # Number of entries that have been flushed from TLB
system.cpu.itb.flush_tlb                            0                       # Number of times complete TLB was flushed
system.cpu.itb.flush_tlb_asid                       0                       # Number of times TLB was flushed by ASID
system.cpu.itb.flush_tlb_mva                        0                       # Number of times TLB was flushed by MVA
system.cpu.itb.flush_tlb_mva_asid                   0                       # Number of times TLB was flushed by MVA & ASID
system.cpu.itb.hits                                 0                       # DTB hits
system.cpu.itb.inst_accesses                        0                       # ITB inst accesses
system.cpu.itb.inst_hits                            0                       # ITB inst hits
system.cpu.itb.inst_misses                          0                       # ITB inst misses
system.cpu.itb.misses                               0                       # DTB misses
system.cpu.itb.perms_faults                         0                       # Number of TLB faults due to permissions restrictions
system.cpu.itb.prefetch_faults                      0                       # Number of TLB faults due to prefetch
system.cpu.itb.read_accesses                        0                       # DTB read accesses
system.cpu.itb.read_hits                            0                       # DTB read hits
system.cpu.itb.read_misses                          0                       # DTB read misses
system.cpu.itb.stage2_mmu.stage2_tlb.accesses            0                       # DTB accesses
system.cpu.itb.stage2_mmu.stage2_tlb.align_faults            0                       # Number of TLB faults due to alignment restrictions
system.cpu.itb.stage2_mmu.stage2_tlb.domain_faults            0                       # Number of TLB faults due to domain restrictions
system.cpu.itb.stage2_mmu.stage2_tlb.flush_entries            0                       # Number of entries that have been flushed from TLB
system.cpu.itb.stage2_mmu.stage2_tlb.flush_tlb            0                       # Number of times complete TLB was flushed
system.cpu.itb.stage2_mmu.stage2_tlb.flush_tlb_asid            0                       # Number of times TLB was flushed by ASID
system.cpu.itb.stage2_mmu.stage2_tlb.flush_tlb_mva            0                       # Number of times TLB was flushed by MVA
system.cpu.itb.stage2_mmu.stage2_tlb.flush_tlb_mva_asid            0                       # Number of times TLB was flushed by MVA & ASID
system.cpu.itb.stage2_mmu.stage2_tlb.hits            0                       # DTB hits
system.cpu.itb.stage2_mmu.stage2_tlb.inst_accesses            0                       # ITB inst accesses
system.cpu.itb.stage2_mmu.stage2_tlb.inst_hits            0                       # ITB inst hits
system.cpu.itb.stage2_mmu.stage2_tlb.inst_misses            0                       # ITB inst misses
system.cpu.itb.stage2_mmu.stage2_tlb.misses            0                       # DTB misses
system.cpu.itb.stage2_mmu.stage2_tlb.perms_faults            0                       # Number of TLB faults due to permissions restrictions
system.cpu.itb.stage2_mmu.stage2_tlb.prefetch_faults            0                       # Number of TLB faults due to prefetch
system.cpu.itb.stage2_mmu.stage2_tlb.read_accesses            0                       # DTB read accesses
system.cpu.itb.stage2_mmu.stage2_tlb.read_hits            0                       # DTB read hits
system.cpu.itb.stage2_mmu.stage2_tlb.read_misses            0                       # DTB read misses
system.cpu.itb.stage2_mmu.stage2_tlb.walker.walkRequestOrigin_Requested::Data            0                       # Table walker requests started/completed, data/inst
system.cpu.itb.stage2_mmu.stage2_tlb.walker.walkRequestOrigin_Requested::Inst            0                       # Table walker requests started/completed, data/inst
system.cpu.itb.stage2_mmu.stage2_tlb.walker.walkRequestOrigin_Requested::total            0                       # Table walker requests started/completed, data/inst
system.cpu.itb.stage2_mmu.stage2_tlb.walker.walkRequestOrigin_Completed::Data            0                       # Table walker requests started/completed, data/inst
system.cpu.itb.stage2_mmu.stage2_tlb.walker.walkRequestOrigin_Completed::Inst            0                       # Table walker requests started/completed, data/inst
system.cpu.itb.stage2_mmu.stage2_tlb.walker.walkRequestOrigin_Completed::total            0                       # Table walker requests started/completed, data/inst
system.cpu.itb.stage2_mmu.stage2_tlb.walker.walkRequestOrigin::total            0                       # Table walker requests started/completed, data/inst
system.cpu.itb.stage2_mmu.stage2_tlb.walker.walks            0                       # Table walker walks requested
system.cpu.itb.stage2_mmu.stage2_tlb.write_accesses            0                       # DTB write accesses
system.cpu.itb.stage2_mmu.stage2_tlb.write_hits            0                       # DTB write hits
system.cpu.itb.stage2_mmu.stage2_tlb.write_misses            0                       # DTB write misses
system.cpu.itb.walker.walkRequestOrigin_Requested::Data            0                       # Table walker requests started/completed, data/inst
system.cpu.itb.walker.walkRequestOrigin_Requested::Inst            0                       # Table walker requests started/completed, data/inst
system.cpu.itb.walker.walkRequestOrigin_Requested::total            0                       # Table walker requests started/completed, data/inst
system.cpu.itb.walker.walkRequestOrigin_Completed::Data            0                       # Table walker requests started/completed, data/inst
system.cpu.itb.walker.walkRequestOrigin_Completed::Inst            0                       # Table walker requests started/completed, data/inst
system.cpu.itb.walker.walkRequestOrigin_Completed::total            0                       # Table walker requests started/completed, data/inst
system.cpu.itb.walker.walkRequestOrigin::total            0                       # Table walker requests started/completed, data/inst
system.cpu.itb.walker.walks                         0                       # Table walker walks requested
system.cpu.itb.write_accesses                       0                       # DTB write accesses
system.cpu.itb.write_hits                           0                       # DTB write hits
system.cpu.itb.write_misses                         0                       # DTB write misses
system.cpu.numCycles                        203413690                       # number of cpu cycles simulated
system.cpu.numFetchSuspends                         0                       # Number of times Execute suspended instruction fetching
system.cpu.numWorkItemsCompleted                    0                       # number of work items this cpu completed
system.cpu.numWorkItemsStarted                      0                       # number of work items this cpu started
system.cpu.op_class_0::No_OpClass                   0      0.00%      0.00% # Class of committed instruction
system.cpu.op_class_0::IntAlu                50006957     50.01%     50.01% # Class of committed instruction
system.cpu.op_class_0::IntMult                     85      0.00%     50.01% # Class of committed instruction
system.cpu.op_class_0::IntDiv                       0      0.00%     50.01% # Class of committed instruction
system.cpu.op_class_0::FloatAdd                     0      0.00%     50.01% # Class of committed instruction
system.cpu.op_class_0::FloatCmp                     0      0.00%     50.01% # Class of committed instruction
system.cpu.op_class_0::FloatCvt                     0      0.00%     50.01% # Class of committed instruction
system.cpu.op_class_0::FloatMult                    0      0.00%     50.01% # Class of committed instruction
system.cpu.op_class_0::FloatMultAcc                 0      0.00%     50.01% # Class of committed instruction
system.cpu.op_class_0::FloatDiv                     0      0.00%     50.01% # Class of committed instruction
system.cpu.op_class_0::FloatMisc                    0      0.00%     50.01% # Class of committed instruction
system.cpu.op_class_0::FloatSqrt                    0      0.00%     50.01% # Class of committed instruction
system.cpu.op_class_0::SimdAdd                      0      0.00%     50.01% # Class of committed instruction
system.cpu.op_class_0::SimdAddAcc                   0      0.00%     50.01% # Class of committed instruction
system.cpu.op_class_0::SimdAlu                      0      0.00%     50.01% # Class of committed instruction
system.cpu.op_class_0::SimdCmp                      0      0.00%     50.01% # Class of committed instruction
system.cpu.op_class_0::SimdCvt                      0      0.00%     50.01% # Class of committed instruction
system.cpu.op_class_0::SimdMisc                     0      0.00%     50.01% # Class of committed instruction
system.cpu.op_class_0::SimdMult                     0      0.00%     50.01% # Class of committed instruction
system.cpu.op_class_0::SimdMultAcc                  0      0.00%     50.01% # Class of committed instruction
system.cpu.op_class_0::SimdShift                    0      0.00%     50.01% # Class of committed instruction
system.cpu.op_class_0::SimdShiftAcc                 0      0.00%     50.01% # Class of committed instruction
system.cpu.op_class_0::SimdDiv                      0      0.00%     50.01% # Class of committed instruction
system.cpu.op_class_0::SimdSqrt                     0      0.00%     50.01% # Class of committed instruction
system.cpu.op_class_0::SimdFloatAdd                 0      0.00%     50.01% # Class of committed instruction
system.cpu.op_class_0::SimdFloatAlu                 0      0.00%     50.01% # Class of committed instruction
system.cpu.op_class_0::SimdFloatCmp                 2      0.00%     50.01% # Class of committed instruction
system.cpu.op_class_0::SimdFloatCvt                 0      0.00%     50.01% # Class of committed instruction
system.cpu.op_class_0::SimdFloatDiv                 0      0.00%     50.01% # Class of committed instruction
system.cpu.op_class_0::SimdFloatMisc               22      0.00%     50.01% # Class of committed instruction
system.cpu.op_class_0::SimdFloatMult                0      0.00%     50.01% # Class of committed instruction
system.cpu.op_class_0::SimdFloatMultAcc             0      0.00%     50.01% # Class of committed instruction
system.cpu.op_class_0::SimdFloatSqrt                0      0.00%     50.01% # Class of committed instruction
system.cpu.op_class_0::SimdReduceAdd                0      0.00%     50.01% # Class of committed instruction
system.cpu.op_class_0::SimdReduceAlu                0      0.00%     50.01% # Class of committed instruction
system.cpu.op_class_0::SimdReduceCmp                0      0.00%     50.01% # Class of committed instruction
system.cpu.op_class_0::SimdFloatReduceAdd            0      0.00%     50.01% # Class of committed instruction
system.cpu.op_class_0::SimdFloatReduceCmp            0      0.00%     50.01% # Class of committed instruction
system.cpu.op_class_0::SimdAes                      0      0.00%     50.01% # Class of committed instruction
system.cpu.op_class_0::SimdAesMix                   0      0.00%     50.01% # Class of committed instruction
system.cpu.op_class_0::SimdSha1Hash                 0      0.00%     50.01% # Class of committed instruction
system.cpu.op_class_0::SimdSha1Hash2                0      0.00%     50.01% # Class of committed instruction
system.cpu.op_class_0::SimdSha256Hash               0      0.00%     50.01% # Class of committed instruction
system.cpu.op_class_0::SimdSha256Hash2              0      0.00%     50.01% # Class of committed instruction
system.cpu.op_class_0::SimdShaSigma2                0      0.00%     50.01% # Class of committed instruction
system.cpu.op_class_0::SimdShaSigma3                0      0.00%     50.01% # Class of committed instruction
system.cpu.op_class_0::SimdPredAlu                  0      0.00%     50.01% # Class of committed instruction
system.cpu.op_class_0::MemRead               36900878     36.90%     86.90% # Class of committed instruction
system.cpu.op_class_0::MemWrite              13095693     13.10%    100.00% # Class of committed instruction
system.cpu.op_class_0::FloatMemRead                 0      0.00%    100.00% # Class of committed instruction
system.cpu.op_class_0::FloatMemWrite                0      0.00%    100.00% # Class of committed instruction
system.cpu.op_class_0::IprAccess                    0      0.00%    100.00% # Class of committed instruction
system.cpu.op_class_0::InstPrefetch                 0      0.00%    100.00% # Class of committed instruction
system.cpu.op_class_0::total                100003637                       # Class of committed instruction
system.cpu.tickCycles                       113775223                       # Number of cycles that the object actually ticked
system.cpu.workload.numSyscalls                    18                       # Number of system calls
system.membus.snoop_filter.hit_multi_requests            0                       # Number of requests hitting in the snoop filter with multiple (>1) holders of the requested data.
system.membus.snoop_filter.hit_multi_snoops            0                       # Number of snoops hitting in the snoop filter with multiple (>1) holders of the requested data.
system.membus.snoop_filter.hit_single_requests       356134                       # Number of requests hitting in the snoop filter with a single holder of the requested data.
system.membus.snoop_filter.hit_single_snoops            0                       # Number of snoops hitting in the snoop filter with a single holder of the requested data.
system.membus.snoop_filter.tot_requests        728392                       # Total number of requests made to the snoop filter.
system.membus.snoop_filter.tot_snoops               0                       # Total number of snoops made to the snoop filter.
system.tol2bus.snoop_filter.hit_multi_requests        23292                       # Number of requests hitting in the snoop filter with multiple (>1) holders of the requested data.
system.tol2bus.snoop_filter.hit_multi_snoops          374                       # Number of snoops hitting in the snoop filter with multiple (>1) holders of the requested data.
system.tol2bus.snoop_filter.hit_single_requests       462182                       # Number of requests hitting in the snoop filter with a single holder of the requested data.
system.tol2bus.snoop_filter.hit_single_snoops         1192                       # Number of snoops hitting in the snoop filter with a single holder of the requested data.
system.tol2bus.snoop_filter.tot_requests       924733                       # Total number of requests made to the snoop filter.
system.tol2bus.snoop_filter.tot_snoops           1566                       # Total number of snoops made to the snoop filter.
system.membus.pwrStateResidencyTicks::UNDEFINED 101706845000                       # Cumulative time (in ticks) in various power states
system.membus.trans_dist::ReadResp                660                       # Transaction distribution
system.membus.trans_dist::WritebackDirty       355600                       # Transaction distribution
system.membus.trans_dist::CleanEvict              160                       # Transaction distribution
system.membus.trans_dist::ReadExReq            371972                       # Transaction distribution
system.membus.trans_dist::ReadExResp           371972                       # Transaction distribution
system.membus.trans_dist::ReadSharedReq           660                       # Transaction distribution
system.membus.pkt_count_system.l2.mem_side::system.mem_ctrls.port      1101024                       # Packet count per connected master and slave (bytes)
system.membus.pkt_count::total                1101024                       # Packet count per connected master and slave (bytes)
system.membus.pkt_size_system.l2.mem_side::system.mem_ctrls.port    186427392                       # Cumulative packet size per connected master and slave (bytes)
system.membus.pkt_size::total               186427392                       # Cumulative packet size per connected master and slave (bytes)
system.membus.snoops                                0                       # Total snoops (count)
system.membus.snoopTraffic                          0                       # Total snoop traffic (bytes)
system.membus.snoop_fanout::samples            372632                       # Request fanout histogram
system.membus.snoop_fanout::mean                    0                       # Request fanout histogram
system.membus.snoop_fanout::stdev                   0                       # Request fanout histogram
system.membus.snoop_fanout::underflows              0      0.00%      0.00% # Request fanout histogram
system.membus.snoop_fanout::0                  372632    100.00%    100.00% # Request fanout histogram
system.membus.snoop_fanout::1                       0      0.00%    100.00% # Request fanout histogram
system.membus.snoop_fanout::overflows               0      0.00%    100.00% # Request fanout histogram
system.membus.snoop_fanout::min_value               0                       # Request fanout histogram
system.membus.snoop_fanout::max_value               0                       # Request fanout histogram
system.membus.snoop_fanout::total              372632                       # Request fanout histogram
system.membus.respLayer1.occupancy         6465408750                       # Layer occupancy (ticks)
system.membus.respLayer1.utilization              6.4                       # Layer utilization (%)
system.membus.reqLayer0.occupancy          6529674500                       # Layer occupancy (ticks)
system.membus.reqLayer0.utilization               6.4                       # Layer utilization (%)
system.tol2bus.pwrStateResidencyTicks::UNDEFINED 101706845000                       # Cumulative time (in ticks) in various power states
system.tol2bus.trans_dist::ReadResp             46989                       # Transaction distribution
system.tol2bus.trans_dist::WritebackDirty       794172                       # Transaction distribution
system.tol2bus.trans_dist::WritebackClean          286                       # Transaction distribution
system.tol2bus.trans_dist::CleanEvict           25049                       # Transaction distribution
system.tol2bus.trans_dist::ReadExReq           415563                       # Transaction distribution
system.tol2bus.trans_dist::ReadExResp          415563                       # Transaction distribution
system.tol2bus.trans_dist::ReadCleanReq           401                       # Transaction distribution
system.tol2bus.trans_dist::ReadSharedReq        46588                       # Transaction distribution
system.tol2bus.pkt_count_system.cpu.icache.mem_side::system.l2.cpu_side         1088                       # Packet count per connected master and slave (bytes)
system.tol2bus.pkt_count_system.cpu.dcache.mem_side::system.l2.cpu_side      1386197                       # Packet count per connected master and slave (bytes)
system.tol2bus.pkt_count::total               1387285                       # Packet count per connected master and slave (bytes)
system.tol2bus.pkt_size_system.cpu.icache.mem_side::system.l2.cpu_side       175872                       # Cumulative packet size per connected master and slave (bytes)
system.tol2bus.pkt_size_system.cpu.dcache.mem_side::system.l2.cpu_side    230585088                       # Cumulative packet size per connected master and slave (bytes)
system.tol2bus.pkt_size::total              230760960                       # Cumulative packet size per connected master and slave (bytes)
system.tol2bus.snoops                          357326                       # Total snoops (count)
system.tol2bus.snoopTraffic                  91033600                       # Total snoop traffic (bytes)
system.tol2bus.snoop_fanout::samples           819878                       # Request fanout histogram
system.tol2bus.snoop_fanout::mean            0.030777                       # Request fanout histogram
system.tol2bus.snoop_fanout::stdev           0.175333                       # Request fanout histogram
system.tol2bus.snoop_fanout::underflows             0      0.00%      0.00% # Request fanout histogram
system.tol2bus.snoop_fanout::0                 795019     96.97%     96.97% # Request fanout histogram
system.tol2bus.snoop_fanout::1                  24485      2.99%     99.95% # Request fanout histogram
system.tol2bus.snoop_fanout::2                    374      0.05%    100.00% # Request fanout histogram
system.tol2bus.snoop_fanout::overflows              0      0.00%    100.00% # Request fanout histogram
system.tol2bus.snoop_fanout::min_value              0                       # Request fanout histogram
system.tol2bus.snoop_fanout::max_value              2                       # Request fanout histogram
system.tol2bus.snoop_fanout::total             819878                       # Request fanout histogram
system.tol2bus.reqLayer0.occupancy         2217798500                       # Layer occupancy (ticks)
system.tol2bus.reqLayer0.utilization              2.2                       # Layer utilization (%)
system.tol2bus.respLayer1.occupancy        2079680498                       # Layer occupancy (ticks)
system.tol2bus.respLayer1.utilization             2.0                       # Layer utilization (%)
system.tol2bus.respLayer0.occupancy           1804999                       # Layer occupancy (ticks)
system.tol2bus.respLayer0.utilization             0.0                       # Layer utilization (%)
system.voltage_domain.voltage                       1                       # Voltage in Volts
system.clk_domain.clock                          1000                       # Clock period in ticks
system.l2.pwrStateResidencyTicks::UNDEFINED 101706845000                       # Cumulative time (in ticks) in various power states
system.l2.demand_hits::.cpu.inst                  171                       # number of demand (read+write) hits
system.l2.demand_hits::.cpu.data                89746                       # number of demand (read+write) hits
system.l2.demand_hits::total                    89917                       # number of demand (read+write) hits
system.l2.overall_hits::.cpu.inst                 171                       # number of overall hits
system.l2.overall_hits::.cpu.data               89746                       # number of overall hits
system.l2.overall_hits::total                   89917                       # number of overall hits
system.l2.demand_misses::.cpu.inst                230                       # number of demand (read+write) misses
system.l2.demand_misses::.cpu.data             372405                       # number of demand (read+write) misses
system.l2.demand_misses::total                 372635                       # number of demand (read+write) misses
system.l2.overall_misses::.cpu.inst               230                       # number of overall misses
system.l2.overall_misses::.cpu.data            372405                       # number of overall misses
system.l2.overall_misses::total                372635                       # number of overall misses
system.l2.demand_miss_latency::.cpu.inst     21330000                       # number of demand (read+write) miss cycles
system.l2.demand_miss_latency::.cpu.data  39327959000                       # number of demand (read+write) miss cycles
system.l2.demand_miss_latency::total      39349289000                       # number of demand (read+write) miss cycles
system.l2.overall_miss_latency::.cpu.inst     21330000                       # number of overall miss cycles
system.l2.overall_miss_latency::.cpu.data  39327959000                       # number of overall miss cycles
system.l2.overall_miss_latency::total     39349289000                       # number of overall miss cycles
system.l2.demand_accesses::.cpu.inst              401                       # number of demand (read+write) accesses
system.l2.demand_accesses::.cpu.data           462151                       # number of demand (read+write) accesses
system.l2.demand_accesses::total               462552                       # number of demand (read+write) accesses
system.l2.overall_accesses::.cpu.inst             401                       # number of overall (read+write) accesses
system.l2.overall_accesses::.cpu.data          462151                       # number of overall (read+write) accesses
system.l2.overall_accesses::total              462552                       # number of overall (read+write) accesses
system.l2.demand_miss_rate::.cpu.inst        0.573566                       # miss rate for demand accesses
system.l2.demand_miss_rate::.cpu.data        0.805808                       # miss rate for demand accesses
system.l2.demand_miss_rate::total            0.805607                       # miss rate for demand accesses
system.l2.overall_miss_rate::.cpu.inst       0.573566                       # miss rate for overall accesses
system.l2.overall_miss_rate::.cpu.data       0.805808                       # miss rate for overall accesses
system.l2.overall_miss_rate::total           0.805607                       # miss rate for overall accesses
system.l2.demand_avg_miss_latency::.cpu.inst 92739.130435                       # average overall miss latency
system.l2.demand_avg_miss_latency::.cpu.data 105605.346330                       # average overall miss latency
system.l2.demand_avg_miss_latency::total 105597.404967                       # average overall miss latency
system.l2.overall_avg_miss_latency::.cpu.inst 92739.130435                       # average overall miss latency
system.l2.overall_avg_miss_latency::.cpu.data 105605.346330                       # average overall miss latency
system.l2.overall_avg_miss_latency::total 105597.404967                       # average overall miss latency
system.l2.blocked_cycles::no_mshrs                  0                       # number of cycles access was blocked
system.l2.blocked_cycles::no_targets                0                       # number of cycles access was blocked
system.l2.blocked::no_mshrs                         0                       # number of cycles access was blocked
system.l2.blocked::no_targets                       0                       # number of cycles access was blocked
system.l2.avg_blocked_cycles::no_mshrs            nan                       # average number of cycles each access was blocked
system.l2.avg_blocked_cycles::no_targets          nan                       # average number of cycles each access was blocked
system.l2.writebacks::.writebacks              355600                       # number of writebacks
system.l2.writebacks::total                    355600                       # number of writebacks
system.l2.demand_mshr_hits::.cpu.inst               1                       # number of demand (read+write) MSHR hits
system.l2.demand_mshr_hits::.cpu.data               2                       # number of demand (read+write) MSHR hits
system.l2.demand_mshr_hits::total                   3                       # number of demand (read+write) MSHR hits
system.l2.overall_mshr_hits::.cpu.inst              1                       # number of overall MSHR hits
system.l2.overall_mshr_hits::.cpu.data              2                       # number of overall MSHR hits
system.l2.overall_mshr_hits::total                  3                       # number of overall MSHR hits
system.l2.demand_mshr_misses::.cpu.inst           229                       # number of demand (read+write) MSHR misses
system.l2.demand_mshr_misses::.cpu.data        372403                       # number of demand (read+write) MSHR misses
system.l2.demand_mshr_misses::total            372632                       # number of demand (read+write) MSHR misses
system.l2.overall_mshr_misses::.cpu.inst          229                       # number of overall MSHR misses
system.l2.overall_mshr_misses::.cpu.data       372403                       # number of overall MSHR misses
system.l2.overall_mshr_misses::total           372632                       # number of overall MSHR misses
system.l2.demand_mshr_miss_latency::.cpu.inst     18958500                       # number of demand (read+write) MSHR miss cycles
system.l2.demand_mshr_miss_latency::.cpu.data  35603764500                       # number of demand (read+write) MSHR miss cycles
system.l2.demand_mshr_miss_latency::total  35622723000                       # number of demand (read+write) MSHR miss cycles
system.l2.overall_mshr_miss_latency::.cpu.inst     18958500                       # number of overall MSHR miss cycles
system.l2.overall_mshr_miss_latency::.cpu.data  35603764500                       # number of overall MSHR miss cycles
system.l2.overall_mshr_miss_latency::total  35622723000                       # number of overall MSHR miss cycles
system.l2.demand_mshr_miss_rate::.cpu.inst     0.571072                       # mshr miss rate for demand accesses
system.l2.demand_mshr_miss_rate::.cpu.data     0.805804                       # mshr miss rate for demand accesses
system.l2.demand_mshr_miss_rate::total       0.805600                       # mshr miss rate for demand accesses
system.l2.overall_mshr_miss_rate::.cpu.inst     0.571072                       # mshr miss rate for overall accesses
system.l2.overall_mshr_miss_rate::.cpu.data     0.805804                       # mshr miss rate for overall accesses
system.l2.overall_mshr_miss_rate::total      0.805600                       # mshr miss rate for overall accesses
system.l2.demand_avg_mshr_miss_latency::.cpu.inst 82788.209607                       # average overall mshr miss latency
system.l2.demand_avg_mshr_miss_latency::.cpu.data 95605.471760                       # average overall mshr miss latency
system.l2.demand_avg_mshr_miss_latency::total 95597.594946                       # average overall mshr miss latency
system.l2.overall_avg_mshr_miss_latency::.cpu.inst 82788.209607                       # average overall mshr miss latency
system.l2.overall_avg_mshr_miss_latency::.cpu.data 95605.471760                       # average overall mshr miss latency
system.l2.overall_avg_mshr_miss_latency::total 95597.594946                       # average overall mshr miss latency
system.l2.replacements                         357326                       # number of replacements
system.l2.WritebackDirty_hits::.writebacks       438572                       # number of WritebackDirty hits
system.l2.WritebackDirty_hits::total           438572                       # number of WritebackDirty hits
system.l2.WritebackDirty_accesses::.writebacks       438572                       # number of WritebackDirty accesses(hits+misses)
system.l2.WritebackDirty_accesses::total       438572                       # number of WritebackDirty accesses(hits+misses)
system.l2.WritebackClean_hits::.writebacks          257                       # number of WritebackClean hits
system.l2.WritebackClean_hits::total              257                       # number of WritebackClean hits
system.l2.WritebackClean_accesses::.writebacks          257                       # number of WritebackClean accesses(hits+misses)
system.l2.WritebackClean_accesses::total          257                       # number of WritebackClean accesses(hits+misses)
system.l2.ReadExReq_hits::.cpu.data             43591                       # number of ReadExReq hits
system.l2.ReadExReq_hits::total                 43591                       # number of ReadExReq hits
system.l2.ReadExReq_misses::.cpu.data          371972                       # number of ReadExReq misses
system.l2.ReadExReq_misses::total              371972                       # number of ReadExReq misses
system.l2.ReadExReq_miss_latency::.cpu.data  39286278500                       # number of ReadExReq miss cycles
system.l2.ReadExReq_miss_latency::total   39286278500                       # number of ReadExReq miss cycles
system.l2.ReadExReq_accesses::.cpu.data        415563                       # number of ReadExReq accesses(hits+misses)
system.l2.ReadExReq_accesses::total            415563                       # number of ReadExReq accesses(hits+misses)
system.l2.ReadExReq_miss_rate::.cpu.data     0.895104                       # miss rate for ReadExReq accesses
system.l2.ReadExReq_miss_rate::total         0.895104                       # miss rate for ReadExReq accesses
system.l2.ReadExReq_avg_miss_latency::.cpu.data 105616.225146                       # average ReadExReq miss latency
system.l2.ReadExReq_avg_miss_latency::total 105616.225146                       # average ReadExReq miss latency
system.l2.ReadExReq_mshr_misses::.cpu.data       371972                       # number of ReadExReq MSHR misses
system.l2.ReadExReq_mshr_misses::total         371972                       # number of ReadExReq MSHR misses
system.l2.ReadExReq_mshr_miss_latency::.cpu.data  35566558500                       # number of ReadExReq MSHR miss cycles
system.l2.ReadExReq_mshr_miss_latency::total  35566558500                       # number of ReadExReq MSHR miss cycles
system.l2.ReadExReq_mshr_miss_rate::.cpu.data     0.895104                       # mshr miss rate for ReadExReq accesses
system.l2.ReadExReq_mshr_miss_rate::total     0.895104                       # mshr miss rate for ReadExReq accesses
system.l2.ReadExReq_avg_mshr_miss_latency::.cpu.data 95616.225146                       # average ReadExReq mshr miss latency
system.l2.ReadExReq_avg_mshr_miss_latency::total 95616.225146                       # average ReadExReq mshr miss latency
system.l2.ReadCleanReq_hits::.cpu.inst            171                       # number of ReadCleanReq hits
system.l2.ReadCleanReq_hits::total                171                       # number of ReadCleanReq hits
system.l2.ReadCleanReq_misses::.cpu.inst          230                       # number of ReadCleanReq misses
system.l2.ReadCleanReq_misses::total              230                       # number of ReadCleanReq misses
system.l2.ReadCleanReq_miss_latency::.cpu.inst     21330000                       # number of ReadCleanReq miss cycles
system.l2.ReadCleanReq_miss_latency::total     21330000                       # number of ReadCleanReq miss cycles
system.l2.ReadCleanReq_accesses::.cpu.inst          401                       # number of ReadCleanReq accesses(hits+misses)
system.l2.ReadCleanReq_accesses::total            401                       # number of ReadCleanReq accesses(hits+misses)
system.l2.ReadCleanReq_miss_rate::.cpu.inst     0.573566                       # miss rate for ReadCleanReq accesses
system.l2.ReadCleanReq_miss_rate::total      0.573566                       # miss rate for ReadCleanReq accesses
system.l2.ReadCleanReq_avg_miss_latency::.cpu.inst 92739.130435                       # average ReadCleanReq miss latency
system.l2.ReadCleanReq_avg_miss_latency::total 92739.130435                       # average ReadCleanReq miss latency
system.l2.ReadCleanReq_mshr_hits::.cpu.inst            1                       # number of ReadCleanReq MSHR hits
system.l2.ReadCleanReq_mshr_hits::total             1                       # number of ReadCleanReq MSHR hits
system.l2.ReadCleanReq_mshr_misses::.cpu.inst          229                       # number of ReadCleanReq MSHR misses
system.l2.ReadCleanReq_mshr_misses::total          229                       # number of ReadCleanReq MSHR misses
system.l2.ReadCleanReq_mshr_miss_latency::.cpu.inst     18958500                       # number of ReadCleanReq MSHR miss cycles
system.l2.ReadCleanReq_mshr_miss_latency::total     18958500                       # number of ReadCleanReq MSHR miss cycles
system.l2.ReadCleanReq_mshr_miss_rate::.cpu.inst     0.571072                       # mshr miss rate for ReadCleanReq accesses
system.l2.ReadCleanReq_mshr_miss_rate::total     0.571072                       # mshr miss rate for ReadCleanReq accesses
system.l2.ReadCleanReq_avg_mshr_miss_latency::.cpu.inst 82788.209607                       # average ReadCleanReq mshr miss latency
system.l2.ReadCleanReq_avg_mshr_miss_latency::total 82788.209607                       # average ReadCleanReq mshr miss latency
system.l2.ReadSharedReq_hits::.cpu.data         46155                       # number of ReadSharedReq hits
system.l2.ReadSharedReq_hits::total             46155                       # number of ReadSharedReq hits
system.l2.ReadSharedReq_misses::.cpu.data          433                       # number of ReadSharedReq misses
system.l2.ReadSharedReq_misses::total             433                       # number of ReadSharedReq misses
system.l2.ReadSharedReq_miss_latency::.cpu.data     41680500                       # number of ReadSharedReq miss cycles
system.l2.ReadSharedReq_miss_latency::total     41680500                       # number of ReadSharedReq miss cycles
system.l2.ReadSharedReq_accesses::.cpu.data        46588                       # number of ReadSharedReq accesses(hits+misses)
system.l2.ReadSharedReq_accesses::total         46588                       # number of ReadSharedReq accesses(hits+misses)
system.l2.ReadSharedReq_miss_rate::.cpu.data     0.009294                       # miss rate for ReadSharedReq accesses
system.l2.ReadSharedReq_miss_rate::total     0.009294                       # miss rate for ReadSharedReq accesses
system.l2.ReadSharedReq_avg_miss_latency::.cpu.data 96259.815242                       # average ReadSharedReq miss latency
system.l2.ReadSharedReq_avg_miss_latency::total 96259.815242                       # average ReadSharedReq miss latency
system.l2.ReadSharedReq_mshr_hits::.cpu.data            2                       # number of ReadSharedReq MSHR hits
system.l2.ReadSharedReq_mshr_hits::total            2                       # number of ReadSharedReq MSHR hits
system.l2.ReadSharedReq_mshr_misses::.cpu.data          431                       # number of ReadSharedReq MSHR misses
system.l2.ReadSharedReq_mshr_misses::total          431                       # number of ReadSharedReq MSHR misses
system.l2.ReadSharedReq_mshr_miss_latency::.cpu.data     37206000                       # number of ReadSharedReq MSHR miss cycles
system.l2.ReadSharedReq_mshr_miss_latency::total     37206000                       # number of ReadSharedReq MSHR miss cycles
system.l2.ReadSharedReq_mshr_miss_rate::.cpu.data     0.009251                       # mshr miss rate for ReadSharedReq accesses
system.l2.ReadSharedReq_mshr_miss_rate::total     0.009251                       # mshr miss rate for ReadSharedReq accesses
system.l2.ReadSharedReq_avg_mshr_miss_latency::.cpu.data 86324.825986                       # average ReadSharedReq mshr miss latency
system.l2.ReadSharedReq_avg_mshr_miss_latency::total 86324.825986                       # average ReadSharedReq mshr miss latency
system.l2.tags.pwrStateResidencyTicks::UNDEFINED 101706845000                       # Cumulative time (in ticks) in various power states
system.l2.tags.tagsinuse                 16040.172593                       # Cycle average of tags in use
system.l2.tags.total_refs                      901438                       # Total number of references to valid blocks.
system.l2.tags.sampled_refs                    373710                       # Sample count of references to valid blocks.
system.l2.tags.avg_refs                      2.412132                       # Average number of references to valid blocks.
system.l2.tags.warmup_cycle                     92000                       # Cycle when the warmup percentage was hit.
system.l2.tags.occ_blocks::.writebacks       0.973748                       # Average occupied blocks per requestor
system.l2.tags.occ_blocks::.cpu.inst         8.832659                       # Average occupied blocks per requestor
system.l2.tags.occ_blocks::.cpu.data     16030.366186                       # Average occupied blocks per requestor
system.l2.tags.occ_percent::.writebacks      0.000059                       # Average percentage of cache occupancy
system.l2.tags.occ_percent::.cpu.inst        0.000539                       # Average percentage of cache occupancy
system.l2.tags.occ_percent::.cpu.data        0.978416                       # Average percentage of cache occupancy
system.l2.tags.occ_percent::total            0.979014                       # Average percentage of cache occupancy
system.l2.tags.occ_task_id_blocks::1024         16384                       # Occupied blocks per task id
system.l2.tags.age_task_id_blocks_1024::0           37                       # Occupied blocks per task id
system.l2.tags.age_task_id_blocks_1024::1          325                       # Occupied blocks per task id
system.l2.tags.age_task_id_blocks_1024::2         3289                       # Occupied blocks per task id
system.l2.tags.age_task_id_blocks_1024::3        12733                       # Occupied blocks per task id
system.l2.tags.occ_task_id_percent::1024            1                       # Percentage of cache occupancy per task id
system.l2.tags.tag_accesses                   1275151                       # Number of tag accesses
system.l2.tags.data_accesses                  1275151                       # Number of data accesses
system.cpu_voltage_domain.voltage                   1                       # Voltage in Volts
system.mem_ctrls.pwrStateResidencyTicks::UNDEFINED 101706845000                       # Cumulative time (in ticks) in various power states
system.mem_ctrls.bytes_read::.cpu.inst          58624                       # Number of bytes read from this memory
system.mem_ctrls.bytes_read::.cpu.data       95335168                       # Number of bytes read from this memory
system.mem_ctrls.bytes_read::total           95393792                       # Number of bytes read from this memory
system.mem_ctrls.bytes_inst_read::.cpu.inst        58624                       # Number of instructions bytes read from this memory
system.mem_ctrls.bytes_inst_read::total         58624                       # Number of instructions bytes read from this memory
system.mem_ctrls.bytes_written::.writebacks     91033600                       # Number of bytes written to this memory
system.mem_ctrls.bytes_written::total        91033600                       # Number of bytes written to this memory
system.mem_ctrls.num_reads::.cpu.inst             229                       # Number of read requests responded to by this memory
system.mem_ctrls.num_reads::.cpu.data          372403                       # Number of read requests responded to by this memory
system.mem_ctrls.num_reads::total              372632                       # Number of read requests responded to by this memory
system.mem_ctrls.num_writes::.writebacks       355600                       # Number of write requests responded to by this memory
system.mem_ctrls.num_writes::total             355600                       # Number of write requests responded to by this memory
system.mem_ctrls.bw_read::.cpu.inst            576402                       # Total read bandwidth from this memory (bytes/s)
system.mem_ctrls.bw_read::.cpu.data         937352525                       # Total read bandwidth from this memory (bytes/s)
system.mem_ctrls.bw_read::total             937928927                       # Total read bandwidth from this memory (bytes/s)
system.mem_ctrls.bw_inst_read::.cpu.inst       576402                       # Instruction read bandwidth from this memory (bytes/s)
system.mem_ctrls.bw_inst_read::total           576402                       # Instruction read bandwidth from this memory (bytes/s)
system.mem_ctrls.bw_write::.writebacks      895058735                       # Write bandwidth from this memory (bytes/s)
system.mem_ctrls.bw_write::total            895058735                       # Write bandwidth from this memory (bytes/s)
system.mem_ctrls.bw_total::.writebacks      895058735                       # Total bandwidth to/from this memory (bytes/s)
system.mem_ctrls.bw_total::.cpu.inst           576402                       # Total bandwidth to/from this memory (bytes/s)
system.mem_ctrls.bw_total::.cpu.data        937352525                       # Total bandwidth to/from this memory (bytes/s)
system.mem_ctrls.bw_total::total           1832987662                       # Total bandwidth to/from this memory (bytes/s)
system.mem_ctrls.avgPriority_.writebacks::samples   1422400.00                       # Average QoS priority value for accepted requests
system.mem_ctrls.avgPriority_.cpu.inst::samples       916.00                       # Average QoS priority value for accepted requests
system.mem_ctrls.avgPriority_.cpu.data::samples   1489612.00                       # Average QoS priority value for accepted requests
system.mem_ctrls.priorityMinLatency      0.000000018750                       # per QoS priority minimum request to response latency (s)
system.mem_ctrls.priorityMaxLatency      0.007323666750                       # per QoS priority maximum request to response latency (s)
system.mem_ctrls.numReadWriteTurnArounds        71529                       # Number of turnarounds from READ to WRITE
system.mem_ctrls.numWriteReadTurnArounds        71529                       # Number of turnarounds from WRITE to READ
system.mem_ctrls.numStayReadState             2236092                       # Number of times bus staying in READ state
system.mem_ctrls.numStayWriteState            1359029                       # Number of times bus staying in WRITE state
system.mem_ctrls.readReqs                      372632                       # Number of read requests accepted
system.mem_ctrls.writeReqs                     355600                       # Number of write requests accepted
system.mem_ctrls.readBursts                   1490528                       # Number of DRAM read bursts, including those serviced by the write queue
system.mem_ctrls.writeBursts                  1422400                       # Number of DRAM write bursts, including those merged in the write queue
system.mem_ctrls.servicedByWrQ                      0                       # Number of DRAM read bursts serviced by the write queue
system.mem_ctrls.mergedWrBursts                     0                       # Number of DRAM write bursts merged with an existing one
system.mem_ctrls.neitherReadNorWriteReqs            0                       # Number of requests that are neither read nor write
system.mem_ctrls.perBankRdBursts::0             94656                       # Per bank write bursts
system.mem_ctrls.perBankRdBursts::1             92964                       # Per bank write bursts
system.mem_ctrls.perBankRdBursts::2             93020                       # Per bank write bursts
system.mem_ctrls.perBankRdBursts::3             93016                       # Per bank write bursts
system.mem_ctrls.perBankRdBursts::4             93148                       # Per bank write bursts
system.mem_ctrls.perBankRdBursts::5             93100                       # Per bank write bursts
system.mem_ctrls.perBankRdBursts::6             93072                       # Per bank write bursts
system.mem_ctrls.perBankRdBursts::7             93088                       # Per bank write bursts
system.mem_ctrls.perBankRdBursts::8             93232                       # Per bank write bursts
system.mem_ctrls.perBankRdBursts::9             93100                       # Per bank write bursts
system.mem_ctrls.perBankRdBursts::10            93092                       # Per bank write bursts
system.mem_ctrls.perBankRdBursts::11            92980                       # Per bank write bursts
system.mem_ctrls.perBankRdBursts::12            93052                       # Per bank write bursts
system.mem_ctrls.perBankRdBursts::13            92984                       # Per bank write bursts
system.mem_ctrls.perBankRdBursts::14            92992                       # Per bank write bursts
system.mem_ctrls.perBankRdBursts::15            93032                       # Per bank write bursts
system.mem_ctrls.perBankWrBursts::0             88912                       # Per bank write bursts
system.mem_ctrls.perBankWrBursts::1             88864                       # Per bank write bursts
system.mem_ctrls.perBankWrBursts::2             88856                       # Per bank write bursts
system.mem_ctrls.perBankWrBursts::3             88904                       # Per bank write bursts
system.mem_ctrls.perBankWrBursts::4             88964                       # Per bank write bursts
system.mem_ctrls.perBankWrBursts::5             88960                       # Per bank write bursts
system.mem_ctrls.perBankWrBursts::6             88960                       # Per bank write bursts
system.mem_ctrls.perBankWrBursts::7             88960                       # Per bank write bursts
system.mem_ctrls.perBankWrBursts::8             88960                       # Per bank write bursts
system.mem_ctrls.perBankWrBursts::9             88960                       # Per bank write bursts
system.mem_ctrls.perBankWrBursts::10            88905                       # Per bank write bursts
system.mem_ctrls.perBankWrBursts::11            88832                       # Per bank write bursts
system.mem_ctrls.perBankWrBursts::12            88832                       # Per bank write bursts
system.mem_ctrls.perBankWrBursts::13            88832                       # Per bank write bursts
system.mem_ctrls.perBankWrBursts::14            88832                       # Per bank write bursts
system.mem_ctrls.perBankWrBursts::15            88844                       # Per bank write bursts
system.mem_ctrls.avgRdQLen                       4.00                       # Average read queue length when enqueuing
system.mem_ctrls.avgWrQLen                      26.48                       # Average write queue length when enqueuing
system.mem_ctrls.totQLat                  42014672750                       # Total ticks spent queuing
system.mem_ctrls.totBusLat                 7452640000                       # Total ticks spent in databus transfers
system.mem_ctrls.totMemAccLat             69962072750                       # Total ticks spent from burst creation until serviced by the DRAM
system.mem_ctrls.avgQLat                     28187.78                       # Average queueing delay per DRAM burst
system.mem_ctrls.avgBusLat                    5000.00                       # Average bus latency per DRAM burst
system.mem_ctrls.avgMemAccLat                46937.78                       # Average memory access latency per DRAM burst
system.mem_ctrls.numRdRetry                         0                       # Number of times read queue was full causing retry
system.mem_ctrls.numWrRetry                         0                       # Number of times write queue was full causing retry
system.mem_ctrls.readRowHits                  1344052                       # Number of row buffer hits during reads
system.mem_ctrls.writeRowHits                 1277766                       # Number of row buffer hits during writes
system.mem_ctrls.readRowHitRate                 90.17                       # Row buffer hit rate for reads
system.mem_ctrls.writeRowHitRate                89.83                       # Row buffer hit rate for writes
system.mem_ctrls.readPktSize::0                     0                       # Read request sizes (log2)
system.mem_ctrls.readPktSize::1                     0                       # Read request sizes (log2)
system.mem_ctrls.readPktSize::2                     0                       # Read request sizes (log2)
system.mem_ctrls.readPktSize::3                     0                       # Read request sizes (log2)
system.mem_ctrls.readPktSize::4                     0                       # Read request sizes (log2)
system.mem_ctrls.readPktSize::5                     0                       # Read request sizes (log2)
system.mem_ctrls.readPktSize::6               1490528                       # Read request sizes (log2)
system.mem_ctrls.writePktSize::0                    0                       # Write request sizes (log2)
system.mem_ctrls.writePktSize::1                    0                       # Write request sizes (log2)
system.mem_ctrls.writePktSize::2                    0                       # Write request sizes (log2)
system.mem_ctrls.writePktSize::3                    0                       # Write request sizes (log2)
system.mem_ctrls.writePktSize::4                    0                       # Write request sizes (log2)
system.mem_ctrls.writePktSize::5                    0                       # Write request sizes (log2)
system.mem_ctrls.writePktSize::6              1422400                       # Write request sizes (log2)
system.mem_ctrls.rdQLenPdf::0                  372575                       # What read queue length does an incoming req see
system.mem_ctrls.rdQLenPdf::1                  372575                       # What read queue length does an incoming req see
system.mem_ctrls.rdQLenPdf::2                  372576                       # What read queue length does an incoming req see
system.mem_ctrls.rdQLenPdf::3                  372577                       # What read queue length does an incoming req see
system.mem_ctrls.rdQLenPdf::4                      56                       # What read queue length does an incoming req see
system.mem_ctrls.rdQLenPdf::5                      56                       # What read queue length does an incoming req see
system.mem_ctrls.rdQLenPdf::6                      55                       # What read queue length does an incoming req see
system.mem_ctrls.rdQLenPdf::7                      54                       # What read queue length does an incoming req see
system.mem_ctrls.rdQLenPdf::8                       1                       # What read queue length does an incoming req see
system.mem_ctrls.rdQLenPdf::9                       1                       # What read queue length does an incoming req see
system.mem_ctrls.rdQLenPdf::10                      1                       # What read queue length does an incoming req see
system.mem_ctrls.rdQLenPdf::11                      1                       # What read queue length does an incoming req see
system.mem_ctrls.rdQLenPdf::12                      0                       # What read queue length does an incoming req see
system.mem_ctrls.rdQLenPdf::13                      0                       # What read queue length does an incoming req see
system.mem_ctrls.rdQLenPdf::14                      0                       # What read queue length does an incoming req see
system.mem_ctrls.rdQLenPdf::15                      0                       # What read queue length does an incoming req see
system.mem_ctrls.rdQLenPdf::16                      0                       # What read queue length does an incoming req see
system.mem_ctrls.rdQLenPdf::17                      0                       # What read queue length does an incoming req see
system.mem_ctrls.rdQLenPdf::18                      0                       # What read queue length does an incoming req see
system.mem_ctrls.rdQLenPdf::19                      0                       # What read queue length does an incoming req see
system.mem_ctrls.rdQLenPdf::20                      0                       # What read queue length does an incoming req see
system.mem_ctrls.rdQLenPdf::21                      0                       # What read queue length does an incoming req see
system.mem_ctrls.rdQLenPdf::22                      0                       # What read queue length does an incoming req see
system.mem_ctrls.rdQLenPdf::23                      0                       # What read queue length does an incoming req see
system.mem_ctrls.rdQLenPdf::24                      0                       # What read queue length does an incoming req see
system.mem_ctrls.rdQLenPdf::25                      0                       # What read queue length does an incoming req see
system.mem_ctrls.rdQLenPdf::26                      0                       # What read queue length does an incoming req see
system.mem_ctrls.rdQLenPdf::27                      0                       # What read queue length does an incoming req see
system.mem_ctrls.rdQLenPdf::28                      0                       # What read queue length does an incoming req see
system.mem_ctrls.rdQLenPdf::29                      0                       # What read queue length does an incoming req see
system.mem_ctrls.rdQLenPdf::30                      0                       # What read queue length does an incoming req see
system.mem_ctrls.rdQLenPdf::31                      0                       # What read queue length does an incoming req see
system.mem_ctrls.wrQLenPdf::0                       1                       # What write queue length does an incoming req see
system.mem_ctrls.wrQLenPdf::1                       1                       # What write queue length does an incoming req see
system.mem_ctrls.wrQLenPdf::2                       1                       # What write queue length does an incoming req see
system.mem_ctrls.wrQLenPdf::3                       1                       # What write queue length does an incoming req see
system.mem_ctrls.wrQLenPdf::4                       1                       # What write queue length does an incoming req see
system.mem_ctrls.wrQLenPdf::5                       1                       # What write queue length does an incoming req see
system.mem_ctrls.wrQLenPdf::6                       1                       # What write queue length does an incoming req see
system.mem_ctrls.wrQLenPdf::7                       1                       # What write queue length does an incoming req see
system.mem_ctrls.wrQLenPdf::8                       1                       # What write queue length does an incoming req see
system.mem_ctrls.wrQLenPdf::9                       1                       # What write queue length does an incoming req see
system.mem_ctrls.wrQLenPdf::10                      1                       # What write queue length does an incoming req see
system.mem_ctrls.wrQLenPdf::11                      1                       # What write queue length does an incoming req see
system.mem_ctrls.wrQLenPdf::12                      1                       # What write queue length does an incoming req see
system.mem_ctrls.wrQLenPdf::13                      1                       # What write queue length does an incoming req see
system.mem_ctrls.wrQLenPdf::14                      1                       # What write queue length does an incoming req see
system.mem_ctrls.wrQLenPdf::15                  68819                       # What write queue length does an incoming req see
system.mem_ctrls.wrQLenPdf::16                  68911                       # What write queue length does an incoming req see
system.mem_ctrls.wrQLenPdf::17                  69654                       # What write queue length does an incoming req see
system.mem_ctrls.wrQLenPdf::18                  69828                       # What write queue length does an incoming req see
system.mem_ctrls.wrQLenPdf::19                  72073                       # What write queue length does an incoming req see
system.mem_ctrls.wrQLenPdf::20                  72073                       # What write queue length does an incoming req see
system.mem_ctrls.wrQLenPdf::21                  72073                       # What write queue length does an incoming req see
system.mem_ctrls.wrQLenPdf::22                  71992                       # What write queue length does an incoming req see
system.mem_ctrls.wrQLenPdf::23                  71529                       # What write queue length does an incoming req see
system.mem_ctrls.wrQLenPdf::24                  71550                       # What write queue length does an incoming req see
system.mem_ctrls.wrQLenPdf::25                  71550                       # What write queue length does an incoming req see
system.mem_ctrls.wrQLenPdf::26                  71550                       # What write queue length does an incoming req see
system.mem_ctrls.wrQLenPdf::27                  71554                       # What write queue length does an incoming req see
system.mem_ctrls.wrQLenPdf::28                  71533                       # What write queue length does an incoming req see
system.mem_ctrls.wrQLenPdf::29                  71533                       # What write queue length does an incoming req see
system.mem_ctrls.wrQLenPdf::30                  71533                       # What write queue length does an incoming req see
system.mem_ctrls.wrQLenPdf::31                  71529                       # What write queue length does an incoming req see
system.mem_ctrls.wrQLenPdf::32                  71529                       # What write queue length does an incoming req see
system.mem_ctrls.wrQLenPdf::33                  70786                       # What write queue length does an incoming req see
system.mem_ctrls.wrQLenPdf::34                  70693                       # What write queue length does an incoming req see
system.mem_ctrls.wrQLenPdf::35                     93                       # What write queue length does an incoming req see
system.mem_ctrls.wrQLenPdf::36                      0                       # What write queue length does an incoming req see
system.mem_ctrls.wrQLenPdf::37                      0                       # What write queue length does an incoming req see
system.mem_ctrls.wrQLenPdf::38                      0                       # What write queue length does an incoming req see
system.mem_ctrls.wrQLenPdf::39                      0                       # What write queue length does an incoming req see
system.mem_ctrls.wrQLenPdf::40                      0                       # What write queue length does an incoming req see
system.mem_ctrls.wrQLenPdf::41                      0                       # What write queue length does an incoming req see
system.mem_ctrls.wrQLenPdf::42                      0                       # What write queue length does an incoming req see
system.mem_ctrls.wrQLenPdf::43                      0                       # What write queue length does an incoming req see
system.mem_ctrls.wrQLenPdf::44                      0                       # What write queue length does an incoming req see
system.mem_ctrls.wrQLenPdf::45                      0                       # What write queue length does an incoming req see
system.mem_ctrls.wrQLenPdf::46                      0                       # What write queue length does an incoming req see
system.mem_ctrls.wrQLenPdf::47                      0                       # What write queue length does an incoming req see
system.mem_ctrls.wrQLenPdf::48                      0                       # What write queue length does an incoming req see
system.mem_ctrls.wrQLenPdf::49                      0                       # What write queue length does an incoming req see
system.mem_ctrls.wrQLenPdf::50                      0                       # What write queue length does an incoming req see
system.mem_ctrls.wrQLenPdf::51                      0                       # What write queue length does an incoming req see
system.mem_ctrls.wrQLenPdf::52                      0                       # What write queue length does an incoming req see
system.mem_ctrls.wrQLenPdf::53                      0                       # What write queue length does an incoming req see
system.mem_ctrls.wrQLenPdf::54                      0                       # What write queue length does an incoming req see
system.mem_ctrls.wrQLenPdf::55                      0                       # What write queue length does an incoming req see
system.mem_ctrls.wrQLenPdf::56                      0                       # What write queue length does an incoming req see
system.mem_ctrls.wrQLenPdf::57                      0                       # What write queue length does an incoming req see
system.mem_ctrls.wrQLenPdf::58                      0                       # What write queue length does an incoming req see
system.mem_ctrls.wrQLenPdf::59                      0                       # What write queue length does an incoming req see
system.mem_ctrls.wrQLenPdf::60                      0                       # What write queue length does an incoming req see
system.mem_ctrls.wrQLenPdf::61                      0                       # What write queue length does an incoming req see
system.mem_ctrls.wrQLenPdf::62                      0                       # What write queue length does an incoming req see
system.mem_ctrls.wrQLenPdf::63                      0                       # What write queue length does an incoming req see
system.mem_ctrls.bytesPerActivate::samples       291086                       # Bytes accessed per row activation
system.mem_ctrls.bytesPerActivate::mean    640.447868                       # Bytes accessed per row activation
system.mem_ctrls.bytesPerActivate::gmean   511.909822                       # Bytes accessed per row activation
system.mem_ctrls.bytesPerActivate::stdev   369.993573                       # Bytes accessed per row activation
system.mem_ctrls.bytesPerActivate::0-127         6077      2.09%      2.09% # Bytes accessed per row activation
system.mem_ctrls.bytesPerActivate::128-255         4935      1.70%      3.78% # Bytes accessed per row activation
system.mem_ctrls.bytesPerActivate::256-383       115195     39.57%     43.36% # Bytes accessed per row activation
system.mem_ctrls.bytesPerActivate::384-511         2300      0.79%     44.15% # Bytes accessed per row activation
system.mem_ctrls.bytesPerActivate::512-639        16137      5.54%     49.69% # Bytes accessed per row activation
system.mem_ctrls.bytesPerActivate::640-767         3049      1.05%     50.74% # Bytes accessed per row activation
system.mem_ctrls.bytesPerActivate::768-895        11319      3.89%     54.63% # Bytes accessed per row activation
system.mem_ctrls.bytesPerActivate::896-1023         2437      0.84%     55.46% # Bytes accessed per row activation
system.mem_ctrls.bytesPerActivate::1024-1151       129637     44.54%    100.00% # Bytes accessed per row activation
system.mem_ctrls.bytesPerActivate::total       291086                       # Bytes accessed per row activation
system.mem_ctrls.rdPerTurnAround::samples        71529                       # Reads before turning the bus around for writes
system.mem_ctrls.rdPerTurnAround::mean      20.837982                       # Reads before turning the bus around for writes
system.mem_ctrls.rdPerTurnAround::gmean     19.879760                       # Reads before turning the bus around for writes
system.mem_ctrls.rdPerTurnAround::stdev    240.793206                       # Reads before turning the bus around for writes
system.mem_ctrls.rdPerTurnAround::0-2047        71528    100.00%    100.00% # Reads before turning the bus around for writes
system.mem_ctrls.rdPerTurnAround::63488-65535            1      0.00%    100.00% # Reads before turning the bus around for writes
system.mem_ctrls.rdPerTurnAround::total         71529                       # Reads before turning the bus around for writes
system.mem_ctrls.wrPerTurnAround::samples        71529                       # Writes before turning the bus around for reads
system.mem_ctrls.wrPerTurnAround::mean      19.885319                       # Writes before turning the bus around for reads
system.mem_ctrls.wrPerTurnAround::gmean     19.868755                       # Writes before turning the bus around for reads
[...]
system.cpu.icache.ReadReq_miss_rate::.cpu.inst     0.000134                       # miss rate for ReadReq accesses
system.cpu.icache.ReadReq_miss_rate::total     0.000134                       # miss rate for ReadReq accesses
system.cpu.icache.ReadReq_avg_miss_latency::.cpu.inst 60961.346633                       # average ReadReq miss latency
system.cpu.icache.ReadReq_avg_miss_latency::total 60961.346633                       # average ReadReq miss latency
system.cpu.icache.ReadReq_mshr_misses::.cpu.inst          401                       # number of ReadReq MSHR misses
system.cpu.icache.ReadReq_mshr_misses::total          401                       # number of ReadReq MSHR misses
system.cpu.icache.ReadReq_mshr_miss_latency::.cpu.inst     24044500                       # number of ReadReq MSHR miss cycles
system.cpu.icache.ReadReq_mshr_miss_latency::total     24044500                       # number of ReadReq MSHR miss cycles
system.cpu.icache.ReadReq_mshr_miss_rate::.cpu.inst     0.000134                       # mshr miss rate for ReadReq accesses
system.cpu.icache.ReadReq_mshr_miss_rate::total     0.000134                       # mshr miss rate for ReadReq accesses
system.cpu.icache.ReadReq_avg_mshr_miss_latency::.cpu.inst 59961.346633                       # average ReadReq mshr miss latency
system.cpu.icache.ReadReq_avg_mshr_miss_latency::total 59961.346633                       # average ReadReq mshr miss latency
system.cpu.icache.tags.pwrStateResidencyTicks::UNDEFINED 101706845000                       # Cumulative time (in ticks) in various power states
system.cpu.icache.tags.tagsinuse           114.985694                       # Cycle average of tags in use
system.cpu.icache.tags.total_refs             2983199                       # Total number of references to valid blocks.
system.cpu.icache.tags.sampled_refs               401                       # Sample count of references to valid blocks.
system.cpu.icache.tags.avg_refs           7439.399002                       # Average number of references to valid blocks.
system.cpu.icache.tags.warmup_cycle            102500                       # Cycle when the warmup percentage was hit.
system.cpu.icache.tags.occ_blocks::.cpu.inst   114.985694                       # Average occupied blocks per requestor
system.cpu.icache.tags.occ_percent::.cpu.inst     0.898326                       # Average percentage of cache occupancy
system.cpu.icache.tags.occ_percent::total     0.898326                       # Average percentage of cache occupancy
system.cpu.icache.tags.occ_task_id_blocks::1024          115                       # Occupied blocks per task id
system.cpu.icache.tags.age_task_id_blocks_1024::4          115                       # Occupied blocks per task id
system.cpu.icache.tags.occ_task_id_percent::1024     0.898438                       # Percentage of cache occupancy per task id
system.cpu.icache.tags.tag_accesses           5966799                       # Number of tag accesses
system.cpu.icache.tags.data_accesses          5966799                       # Number of data accesses
system.cpu.dtb.walker.pwrStateResidencyTicks::UNDEFINED 101706845000                       # Cumulative time (in ticks) in various power states
system.cpu.dtb.stage2_mmu.stage2_tlb.walker.pwrStateResidencyTicks::UNDEFINED 101706845000                       # Cumulative time (in ticks) in various power states
system.cpu.dcache.pwrStateResidencyTicks::UNDEFINED 101706845000                       # Cumulative time (in ticks) in various power states
system.cpu.dcache.demand_hits::.cpu.data     47930341                       # number of demand (read+write) hits
system.cpu.dcache.demand_hits::total         47930341                       # number of demand (read+write) hits
system.cpu.dcache.overall_hits::.cpu.data     47930384                       # number of overall hits
system.cpu.dcache.overall_hits::total        47930384                       # number of overall hits
system.cpu.dcache.demand_misses::.cpu.data       876231                       # number of demand (read+write) misses
system.cpu.dcache.demand_misses::total         876231                       # number of demand (read+write) misses
system.cpu.dcache.overall_misses::.cpu.data       876240                       # number of overall misses
system.cpu.dcache.overall_misses::total        876240                       # number of overall misses
system.cpu.dcache.demand_miss_latency::.cpu.data  83073010000                       # number of demand (read+write) miss cycles
system.cpu.dcache.demand_miss_latency::total  83073010000                       # number of demand (read+write) miss cycles
system.cpu.dcache.overall_miss_latency::.cpu.data  83073010000                       # number of overall miss cycles
system.cpu.dcache.overall_miss_latency::total  83073010000                       # number of overall miss cycles
system.cpu.dcache.demand_accesses::.cpu.data     48806572                       # number of demand (read+write) accesses
system.cpu.dcache.demand_accesses::total     48806572                       # number of demand (read+write) accesses
system.cpu.dcache.overall_accesses::.cpu.data     48806624                       # number of overall (read+write) accesses
system.cpu.dcache.overall_accesses::total     48806624                       # number of overall (read+write) accesses
system.cpu.dcache.demand_miss_rate::.cpu.data     0.017953                       # miss rate for demand accesses
system.cpu.dcache.demand_miss_rate::total     0.017953                       # miss rate for demand accesses
system.cpu.dcache.overall_miss_rate::.cpu.data     0.017953                       # miss rate for overall accesses
system.cpu.dcache.overall_miss_rate::total     0.017953                       # miss rate for overall accesses
system.cpu.dcache.demand_avg_miss_latency::.cpu.data 94807.202667                       # average overall miss latency
system.cpu.dcache.demand_avg_miss_latency::total 94807.202667                       # average overall miss latency
system.cpu.dcache.overall_avg_miss_latency::.cpu.data 94806.228887                       # average overall miss latency
system.cpu.dcache.overall_avg_miss_latency::total 94806.228887                       # average overall miss latency
system.cpu.dcache.blocked_cycles::no_mshrs            0                       # number of cycles access was blocked
system.cpu.dcache.blocked_cycles::no_targets            0                       # number of cycles access was blocked
system.cpu.dcache.blocked::no_mshrs                 0                       # number of cycles access was blocked
system.cpu.dcache.blocked::no_targets               0                       # number of cycles access was blocked
system.cpu.dcache.avg_blocked_cycles::no_mshrs          nan                       # average number of cycles each access was blocked
system.cpu.dcache.avg_blocked_cycles::no_targets          nan                       # average number of cycles each access was blocked
system.cpu.dcache.writebacks::.writebacks       438572                       # number of writebacks
system.cpu.dcache.writebacks::total            438572                       # number of writebacks
system.cpu.dcache.demand_mshr_hits::.cpu.data       414084                       # number of demand (read+write) MSHR hits
system.cpu.dcache.demand_mshr_hits::total       414084                       # number of demand (read+write) MSHR hits
system.cpu.dcache.overall_mshr_hits::.cpu.data       414084                       # number of overall MSHR hits
system.cpu.dcache.overall_mshr_hits::total       414084                       # number of overall MSHR hits
system.cpu.dcache.demand_mshr_misses::.cpu.data       462147                       # number of demand (read+write) MSHR misses
system.cpu.dcache.demand_mshr_misses::total       462147                       # number of demand (read+write) MSHR misses
system.cpu.dcache.overall_mshr_misses::.cpu.data       462151                       # number of overall MSHR misses
system.cpu.dcache.overall_mshr_misses::total       462151                       # number of overall MSHR misses
system.cpu.dcache.demand_mshr_miss_latency::.cpu.data  42135340000                       # number of demand (read+write) MSHR miss cycles
system.cpu.dcache.demand_mshr_miss_latency::total  42135340000                       # number of demand (read+write) MSHR miss cycles
system.cpu.dcache.overall_mshr_miss_latency::.cpu.data  42135761500                       # number of overall MSHR miss cycles
system.cpu.dcache.overall_mshr_miss_latency::total  42135761500                       # number of overall MSHR miss cycles
system.cpu.dcache.demand_mshr_miss_rate::.cpu.data     0.009469                       # mshr miss rate for demand accesses
system.cpu.dcache.demand_mshr_miss_rate::total     0.009469                       # mshr miss rate for demand accesses
system.cpu.dcache.overall_mshr_miss_rate::.cpu.data     0.009469                       # mshr miss rate for overall accesses
system.cpu.dcache.overall_mshr_miss_rate::total     0.009469                       # mshr miss rate for overall accesses
system.cpu.dcache.demand_avg_mshr_miss_latency::.cpu.data 91173.025033                       # average overall mshr miss latency
system.cpu.dcache.demand_avg_mshr_miss_latency::total 91173.025033                       # average overall mshr miss latency
system.cpu.dcache.overall_avg_mshr_miss_latency::.cpu.data 91173.147954                       # average overall mshr miss latency
system.cpu.dcache.overall_avg_mshr_miss_latency::total 91173.147954                       # average overall mshr miss latency
system.cpu.dcache.replacements                 461895                       # number of replacements
system.cpu.dcache.ReadReq_hits::.cpu.data     35664404                       # number of ReadReq hits
system.cpu.dcache.ReadReq_hits::total        35664404                       # number of ReadReq hits
system.cpu.dcache.ReadReq_misses::.cpu.data        46590                       # number of ReadReq misses
system.cpu.dcache.ReadReq_misses::total         46590                       # number of ReadReq misses
system.cpu.dcache.ReadReq_miss_latency::.cpu.data   1095983000                       # number of ReadReq miss cycles
system.cpu.dcache.ReadReq_miss_latency::total   1095983000                       # number of ReadReq miss cycles
system.cpu.dcache.ReadReq_accesses::.cpu.data     35710994                       # number of ReadReq accesses(hits+misses)
system.cpu.dcache.ReadReq_accesses::total     35710994                       # number of ReadReq accesses(hits+misses)
system.cpu.dcache.ReadReq_miss_rate::.cpu.data     0.001305                       # miss rate for ReadReq accesses
system.cpu.dcache.ReadReq_miss_rate::total     0.001305                       # miss rate for ReadReq accesses
system.cpu.dcache.ReadReq_avg_miss_latency::.cpu.data 23523.996566                       # average ReadReq miss latency
system.cpu.dcache.ReadReq_avg_miss_latency::total 23523.996566                       # average ReadReq miss latency
system.cpu.dcache.ReadReq_mshr_hits::.cpu.data            6                       # number of ReadReq MSHR hits
system.cpu.dcache.ReadReq_mshr_hits::total            6                       # number of ReadReq MSHR hits
system.cpu.dcache.ReadReq_mshr_misses::.cpu.data        46584                       # number of ReadReq MSHR misses
system.cpu.dcache.ReadReq_mshr_misses::total        46584                       # number of ReadReq MSHR misses
system.cpu.dcache.ReadReq_mshr_miss_latency::.cpu.data   1048774500                       # number of ReadReq MSHR miss cycles
system.cpu.dcache.ReadReq_mshr_miss_latency::total   1048774500                       # number of ReadReq MSHR miss cycles
system.cpu.dcache.ReadReq_mshr_miss_rate::.cpu.data     0.001304                       # mshr miss rate for ReadReq accesses
system.cpu.dcache.ReadReq_mshr_miss_rate::total     0.001304                       # mshr miss rate for ReadReq accesses
system.cpu.dcache.ReadReq_avg_mshr_miss_latency::.cpu.data 22513.620556                       # average ReadReq mshr miss latency
system.cpu.dcache.ReadReq_avg_mshr_miss_latency::total 22513.620556                       # average ReadReq mshr miss latency
system.cpu.dcache.WriteReq_hits::.cpu.data     12265937                       # number of WriteReq hits
system.cpu.dcache.WriteReq_hits::total       12265937                       # number of WriteReq hits
system.cpu.dcache.WriteReq_misses::.cpu.data       829641                       # number of WriteReq misses
system.cpu.dcache.WriteReq_misses::total       829641                       # number of WriteReq misses
system.cpu.dcache.WriteReq_miss_latency::.cpu.data  81977027000                       # number of WriteReq miss cycles
system.cpu.dcache.WriteReq_miss_latency::total  81977027000                       # number of WriteReq miss cycles
system.cpu.dcache.WriteReq_accesses::.cpu.data     13095578                       # number of WriteReq accesses(hits+misses)
system.cpu.dcache.WriteReq_accesses::total     13095578                       # number of WriteReq accesses(hits+misses)
system.cpu.dcache.WriteReq_miss_rate::.cpu.data     0.063353                       # miss rate for WriteReq accesses
system.cpu.dcache.WriteReq_miss_rate::total     0.063353                       # miss rate for WriteReq accesses
system.cpu.dcache.WriteReq_avg_miss_latency::.cpu.data 98810.240815                       # average WriteReq miss latency
system.cpu.dcache.WriteReq_avg_miss_latency::total 98810.240815                       # average WriteReq miss latency
system.cpu.dcache.WriteReq_mshr_hits::.cpu.data       414078                       # number of WriteReq MSHR hits
system.cpu.dcache.WriteReq_mshr_hits::total       414078                       # number of WriteReq MSHR hits
system.cpu.dcache.WriteReq_mshr_misses::.cpu.data       415563                       # number of WriteReq MSHR misses
system.cpu.dcache.WriteReq_mshr_misses::total       415563                       # number of WriteReq MSHR misses
system.cpu.dcache.WriteReq_mshr_miss_latency::.cpu.data  41086565500                       # number of WriteReq MSHR miss cycles
system.cpu.dcache.WriteReq_mshr_miss_latency::total  41086565500                       # number of WriteReq MSHR miss cycles
system.cpu.dcache.WriteReq_mshr_miss_rate::.cpu.data     0.031733                       # mshr miss rate for WriteReq accesses
system.cpu.dcache.WriteReq_mshr_miss_rate::total     0.031733                       # mshr miss rate for WriteReq accesses
system.cpu.dcache.WriteReq_avg_mshr_miss_latency::.cpu.data 98869.643111                       # average WriteReq mshr miss latency
system.cpu.dcache.WriteReq_avg_mshr_miss_latency::total 98869.643111                       # average WriteReq mshr miss latency
system.cpu.dcache.SoftPFReq_hits::.cpu.data           43                       # number of SoftPFReq hits
system.cpu.dcache.SoftPFReq_hits::total            43                       # number of SoftPFReq hits
system.cpu.dcache.SoftPFReq_misses::.cpu.data            9                       # number of SoftPFReq misses
system.cpu.dcache.SoftPFReq_misses::total            9                       # number of SoftPFReq misses
system.cpu.dcache.SoftPFReq_accesses::.cpu.data           52                       # number of SoftPFReq accesses(hits+misses)
system.cpu.dcache.SoftPFReq_accesses::total           52                       # number of SoftPFReq accesses(hits+misses)
system.cpu.dcache.SoftPFReq_miss_rate::.cpu.data     0.173077                       # miss rate for SoftPFReq accesses
system.cpu.dcache.SoftPFReq_miss_rate::total     0.173077                       # miss rate for SoftPFReq accesses
system.cpu.dcache.SoftPFReq_mshr_misses::.cpu.data            4                       # number of SoftPFReq MSHR misses
system.cpu.dcache.SoftPFReq_mshr_misses::total            4                       # number of SoftPFReq MSHR misses
system.cpu.dcache.SoftPFReq_mshr_miss_latency::.cpu.data       421500                       # number of SoftPFReq MSHR miss cycles
system.cpu.dcache.SoftPFReq_mshr_miss_latency::total       421500                       # number of SoftPFReq MSHR miss cycles
system.cpu.dcache.SoftPFReq_mshr_miss_rate::.cpu.data     0.076923                       # mshr miss rate for SoftPFReq accesses
system.cpu.dcache.SoftPFReq_mshr_miss_rate::total     0.076923                       # mshr miss rate for SoftPFReq accesses
system.cpu.dcache.SoftPFReq_avg_mshr_miss_latency::.cpu.data       105375                       # average SoftPFReq mshr miss latency
system.cpu.dcache.SoftPFReq_avg_mshr_miss_latency::total       105375                       # average SoftPFReq mshr miss latency
system.cpu.dcache.LoadLockedReq_hits::.cpu.data           14                       # number of LoadLockedReq hits
system.cpu.dcache.LoadLockedReq_hits::total           14                       # number of LoadLockedReq hits
system.cpu.dcache.LoadLockedReq_accesses::.cpu.data           14                       # number of LoadLockedReq accesses(hits+misses)
system.cpu.dcache.LoadLockedReq_accesses::total           14                       # number of LoadLockedReq accesses(hits+misses)
system.cpu.dcache.StoreCondReq_hits::.cpu.data           14                       # number of StoreCondReq hits
system.cpu.dcache.StoreCondReq_hits::total           14                       # number of StoreCondReq hits
system.cpu.dcache.StoreCondReq_accesses::.cpu.data           14                       # number of StoreCondReq accesses(hits+misses)
system.cpu.dcache.StoreCondReq_accesses::total           14                       # number of StoreCondReq accesses(hits+misses)
system.cpu.dcache.tags.pwrStateResidencyTicks::UNDEFINED 101706845000                       # Cumulative time (in ticks) in various power states
system.cpu.dcache.tags.tagsinuse           255.859664                       # Cycle average of tags in use
system.cpu.dcache.tags.total_refs            48392563                       # Total number of references to valid blocks.
system.cpu.dcache.tags.sampled_refs            462151                       # Sample count of references to valid blocks.
system.cpu.dcache.tags.avg_refs            104.711583                       # Average number of references to valid blocks.
system.cpu.dcache.tags.warmup_cycle            210500                       # Cycle when the warmup percentage was hit.
system.cpu.dcache.tags.occ_blocks::.cpu.data   255.859664                       # Average occupied blocks per requestor
system.cpu.dcache.tags.occ_percent::.cpu.data     0.999452                       # Average percentage of cache occupancy
system.cpu.dcache.tags.occ_percent::total     0.999452                       # Average percentage of cache occupancy
system.cpu.dcache.tags.occ_task_id_blocks::1024          256                       # Occupied blocks per task id
system.cpu.dcache.tags.age_task_id_blocks_1024::0           37                       # Occupied blocks per task id
system.cpu.dcache.tags.age_task_id_blocks_1024::1          219                       # Occupied blocks per task id
system.cpu.dcache.tags.occ_task_id_percent::1024            1                       # Percentage of cache occupancy per task id
system.cpu.dcache.tags.tag_accesses          49268803                       # Number of tag accesses
system.cpu.dcache.tags.data_accesses         49268803                       # Number of data accesses
system.cpu.itb.walker.pwrStateResidencyTicks::UNDEFINED 101706845000                       # Cumulative time (in ticks) in various power states
system.cpu.itb.stage2_mmu.stage2_tlb.walker.pwrStateResidencyTicks::UNDEFINED 101706845000                       # Cumulative time (in ticks) in various power states

---------- End Simulation Statistics   ----------
