
---------- Begin Simulation Statistics ----------
final_tick                                80582075000                       # Number of ticks from beginning of simulation (restored from checkpoints and never reset)
host_inst_rate                                 465061                       # Simulator instruction rate (inst/s)
host_mem_usage                                 681244                       # Number of bytes of host memory used
host_op_rate                                   465974                       # Simulator op (including micro ops) rate (op/s)
host_seconds                                   215.03                       # Real time elapsed on the host
host_tick_rate                              374755466                       # Simulator tick rate (ticks/s)
sim_freq                                 1000000000000                       # Frequency of simulated ticks
sim_insts                                   100000001                       # Number of instructions simulated
sim_ops                                     100196363                       # Number of ops (including micro ops) simulated
sim_seconds                                  0.080582                       # Number of seconds simulated
sim_ticks                                 80582075000                       # Number of ticks simulated
system.cpu.branchPred.BTBCorrect                    0                       # Number of correct BTB predictions (this stat may not work properly.
system.cpu.branchPred.BTBHitPct             99.616833                       # BTB Hit Percentage
system.cpu.branchPred.BTBHits                 2096239                       # Number of BTB hits
system.cpu.branchPred.BTBLookups              2104302                       # Number of BTB lookups
system.cpu.branchPred.RASInCorrect                  5                       # Number of incorrect RAS predictions.
system.cpu.branchPred.condIncorrect             81379                       # Number of conditional branches incorrect
system.cpu.branchPred.condPredicted           3728825                       # Number of conditional branches predicted
system.cpu.branchPred.indirectHits                301                       # Number of indirect target hits.
system.cpu.branchPred.indirectLookups            1021                       # Number of indirect predictor lookups.
system.cpu.branchPred.indirectMisses              720                       # Number of indirect misses.
system.cpu.branchPred.lookups                 4479201                       # Number of BP lookups
system.cpu.branchPred.usedRAS                   65346                       # Number of times the RAS was used to get a target.
system.cpu.branchPredindirectMispredicted          163                       # Number of mispredicted indirect branches.
system.cpu.committedInsts                   100000001                       # Number of instructions committed
system.cpu.committedOps                     100196363                       # Number of ops (including micro ops) committed
system.cpu.cpi                               1.611641                       # CPI: cycles per instruction
system.cpu.discardedOps                        190719                       # Number of ops (including micro ops) which were discarded before commit
system.cpu.dtb.accesses                             0                       # DTB accesses
system.cpu.dtb.align_faults                         0                       # Number of TLB faults due to alignment restrictions
system.cpu.dtb.domain_faults                        0                       # Number of TLB faults due to domain restrictions
system.cpu.dtb.flush_entries                        0                       # Number of entries that have been flushed from TLB
system.cpu.dtb.flush_tlb                            0                       # Number of times complete TLB was flushed
system.cpu.dtb.flush_tlb_asid                       0                       # Number of times TLB was flushed by ASID
system.cpu.dtb.flush_tlb_mva                        0                       # Number of times TLB was flushed by MVA
system.cpu.dtb.flush_tlb_mva_asid                   0                       # Number of times TLB was flushed by MVA & ASID
system.cpu.dtb.hits                                 0                       # DTB hits
system.cpu.dtb.inst_accesses                        0                       # ITB inst accesses
system.cpu.dtb.inst_hits                            0                       # ITB inst hits
system.cpu.dtb.inst_misses                          0                       # ITB inst misses
system.cpu.dtb.misses                               0                       # DTB misses
system.cpu.dtb.perms_faults                         0                       # Number of TLB faults due to permissions restrictions
system.cpu.dtb.prefetch_faults                      0                       # Number of TLB faults due to prefetch
system.cpu.dtb.read_accesses                        0                       # DTB read accesses
system.cpu.dtb.read_hits                            0                       # DTB read hits
system.cpu.dtb.read_misses                          0                       # DTB read misses
system.cpu.dtb.stage2_mmu.stage2_tlb.accesses            0                       # DTB accesses
system.cpu.dtb.stage2_mmu.stage2_tlb.align_faults            0                       # Number of TLB faults due to alignment restrictions
system.cpu.dtb.stage2_mmu.stage2_tlb.domain_faults            0                       # Number of TLB faults due to domain restrictions
system.cpu.dtb.stage2_mmu.stage2_tlb.flush_entries            0                       # Number of entries that have been flushed from TLB
system.cpu.dtb.stage2_mmu.stage2_tlb.flush_tlb            0                       # Number of times complete TLB was flushed
system.cpu.dtb.stage2_mmu.stage2_tlb.flush_tlb_asid            0                       # Number of times TLB was flushed by ASID
system.cpu.dtb.stage2_mmu.stage2_tlb.flush_tlb_mva            0                       # Number of times TLB was flushed by MVA
system.cpu.dtb.stage2_mmu.stage2_tlb.flush_tlb_mva_asid            0                       # Number of times TLB was flushed by MVA & ASID
system.cpu.dtb.stage2_mmu.stage2_tlb.hits            0                       # DTB hits
system.cpu.dtb.stage2_mmu.stage2_tlb.inst_accesses            0                       # ITB inst accesses
system.cpu.dtb.stage2_mmu.stage2_tlb.inst_hits            0                       # ITB inst hits
system.cpu.dtb.stage2_mmu.stage2_tlb.inst_misses            0                       # ITB inst misses
system.cpu.dtb.stage2_mmu.stage2_tlb.misses            0                       # DTB misses
system.cpu.dtb.stage2_mmu.stage2_tlb.perms_faults            0                       # Number of TLB faults due to permissions restrictions
system.cpu.dtb.stage2_mmu.stage2_tlb.prefetch_faults            0                       # Number of TLB faults due to prefetch
system.cpu.dtb.stage2_mmu.stage2_tlb.read_accesses            0                       # DTB read accesses
system.cpu.dtb.stage2_mmu.stage2_tlb.read_hits            0                       # DTB read hits
system.cpu.dtb.stage2_mmu.stage2_tlb.read_misses            0                       # DTB read misses
system.cpu.dtb.stage2_mmu.stage2_tlb.walker.walkRequestOrigin_Requested::Data            0                       # Table walker requests started/completed, data/inst
system.cpu.dtb.stage2_mmu.stage2_tlb.walker.walkRequestOrigin_Requested::Inst            0                       # Table walker requests started/completed, data/inst
system.cpu.dtb.stage2_mmu.stage2_tlb.walker.walkRequestOrigin_Requested::total            0                       # Table walker requests started/completed, data/inst
system.cpu.dtb.stage2_mmu.stage2_tlb.walker.walkRequestOrigin_Completed::Data            0                       # Table walker requests started/completed, data/inst
system.cpu.dtb.stage2_mmu.stage2_tlb.walker.walkRequestOrigin_Completed::Inst            0                       # Table walker requests started/completed, data/inst
system.cpu.dtb.stage2_mmu.stage2_tlb.walker.walkRequestOrigin_Completed::total            0                       # Table walker requests started/completed, data/inst
system.cpu.dtb.stage2_mmu.stage2_tlb.walker.walkRequestOrigin::total            0                       # Table walker requests started/completed, data/inst
system.cpu.dtb.stage2_mmu.stage2_tlb.walker.walks            0                       # Table walker walks requested
system.cpu.dtb.stage2_mmu.stage2_tlb.write_accesses            0                       # DTB write accesses
system.cpu.dtb.stage2_mmu.stage2_tlb.write_hits            0                       # DTB write hits
system.cpu.dtb.stage2_mmu.stage2_tlb.write_misses            0                       # DTB write misses
system.cpu.dtb.walker.walkRequestOrigin_Requested::Data            0                       # Table walker requests started/completed, data/inst
system.cpu.dtb.walker.walkRequestOrigin_Requested::Inst            0                       # Table walker requests started/completed, data/inst
system.cpu.dtb.walker.walkRequestOrigin_Requested::total            0                       # Table walker requests started/completed, data/inst
system.cpu.dtb.walker.walkRequestOrigin_Completed::Data            0                       # Table walker requests started/completed, data/inst
system.cpu.dtb.walker.walkRequestOrigin_Completed::Inst            0                       # Table walker requests started/completed, data/inst
system.cpu.dtb.walker.walkRequestOrigin_Completed::total            0                       # Table walker requests started/completed, data/inst
system.cpu.dtb.walker.walkRequestOrigin::total            0                       # Table walker requests started/completed, data/inst
system.cpu.dtb.walker.walks                         0                       # Table walker walks requested
system.cpu.dtb.write_accesses                       0                       # DTB write accesses
system.cpu.dtb.write_hits                           0                       # DTB write hits
system.cpu.dtb.write_misses                         0                       # DTB write misses
system.cpu.fetch2.amo_instructions                  0                       # Number of memory atomic instructions successfully decoded
system.cpu.fetch2.fp_instructions                   0                       # Number of floating point instructions successfully decoded
system.cpu.fetch2.int_instructions           42614843                       # Number of integer instructions successfully decoded
system.cpu.fetch2.load_instructions          43408030                       # Number of memory load instructions successfully decoded
system.cpu.fetch2.store_instructions         11002161                       # Number of memory store instructions successfully decoded
system.cpu.fetch2.vec_instructions                  0                       # Number of SIMD instructions successfully decoded
system.cpu.idleCycles                        28915863                       # Total number of cycles that the object has spent stopped
system.cpu.ipc                               0.620485                       # IPC: instructions per cycle
system.cpu.itb.accesses                             0                       # DTB accesses
system.cpu.itb.align_faults                         0                       # Number of TLB faults due to alignment restrictions
system.cpu.itb.domain_faults                        0                       # Number of TLB faults due to domain restrictions
system.cpu.itb.flush_entries                        0                       # Number of entries that have been flushed from TLB
system.cpu.itb.flush_tlb                            0                       # Number of times complete TLB was flushed
system.cpu.itb.flush_tlb_asid                       0                       # Number of times TLB was flushed by ASID
system.cpu.itb.flush_tlb_mva                        0                       # Number of times TLB was flushed by MVA
system.cpu.itb.flush_tlb_mva_asid                   0                       # Number of times TLB was flushed by MVA & ASID
system.cpu.itb.hits                                 0                       # DTB hits
system.cpu.itb.inst_accesses                        0                       # ITB inst accesses
system.cpu.itb.inst_hits                            0                       # ITB inst hits
system.cpu.itb.inst_misses                          0                       # ITB inst misses
system.cpu.itb.misses                               0                       # DTB misses
system.cpu.itb.perms_faults                         0                       # Number of TLB faults due to permissions restrictions
system.cpu.itb.prefetch_faults                      0                       # Number of TLB faults due to prefetch
system.cpu.itb.read_accesses                        0                       # DTB read accesses
system.cpu.itb.read_hits                            0                       # DTB read hits
system.cpu.itb.read_misses                          0                       # DTB read misses
system.cpu.itb.stage2_mmu.stage2_tlb.accesses            0                       # DTB accesses
system.cpu.itb.stage2_mmu.stage2_tlb.align_faults            0                       # Number of TLB faults due to alignment restrictions
system.cpu.itb.stage2_mmu.stage2_tlb.domain_faults            0                       # Number of TLB faults due to domain restrictions
system.cpu.itb.stage2_mmu.stage2_tlb.flush_entries            0                       # Number of entries that have been flushed from TLB
system.cpu.itb.stage2_mmu.stage2_tlb.flush_tlb            0                       # Number of times complete TLB was flushed
system.cpu.itb.stage2_mmu.stage2_tlb.flush_tlb_asid            0                       # Number of times TLB was flushed by ASID
system.cpu.itb.stage2_mmu.stage2_tlb.flush_tlb_mva            0                       # Number of times TLB was flushed by MVA
system.cpu.itb.stage2_mmu.stage2_tlb.flush_tlb_mva_asid            0                       # Number of times TLB was flushed by MVA & ASID
system.cpu.itb.stage2_mmu.stage2_tlb.hits            0                       # DTB hits
system.cpu.itb.stage2_mmu.stage2_tlb.inst_accesses            0                       # ITB inst accesses
system.cpu.itb.stage2_mmu.stage2_tlb.inst_hits            0                       # ITB inst hits
system.cpu.itb.stage2_mmu.stage2_tlb.inst_misses            0                       # ITB inst misses
system.cpu.itb.stage2_mmu.stage2_tlb.misses            0                       # DTB misses
system.cpu.itb.stage2_mmu.stage2_tlb.perms_faults            0                       # Number of TLB faults due to permissions restrictions
system.cpu.itb.stage2_mmu.stage2_tlb.prefetch_faults            0                       # Number of TLB faults due to prefetch
system.cpu.itb.stage2_mmu.stage2_tlb.read_accesses            0                       # DTB read accesses
system.cpu.itb.stage2_mmu.stage2_tlb.read_hits            0                       # DTB read hits
system.cpu.itb.stage2_mmu.stage2_tlb.read_misses            0                       # DTB read misses
system.cpu.itb.stage2_mmu.stage2_tlb.walker.walkRequestOrigin_Requested::Data            0                       # Table walker requests started/completed, data/inst
system.cpu.itb.stage2_mmu.stage2_tlb.walker.walkRequestOrigin_Requested::Inst            0                       # Table walker requests started/completed, data/inst
system.cpu.itb.stage2_mmu.stage2_tlb.walker.walkRequestOrigin_Requested::total            0                       # Table walker requests started/completed, data/inst
system.cpu.itb.stage2_mmu.stage2_tlb.walker.walkRequestOrigin_Completed::Data            0                       # Table walker requests started/completed, data/inst
system.cpu.itb.stage2_mmu.stage2_tlb.walker.walkRequestOrigin_Completed::Inst            0                       # Table walker requests started/completed, data/inst
system.cpu.itb.stage2_mmu.stage2_tlb.walker.walkRequestOrigin_Completed::total            0                       # Table walker requests started/completed, data/inst
system.cpu.itb.stage2_mmu.stage2_tlb.walker.walkRequestOrigin::total            0                       # Table walker requests started/completed, data/inst
system.cpu.itb.stage2_mmu.stage2_tlb.walker.walks            0                       # Table walker walks requested
system.cpu.itb.stage2_mmu.stage2_tlb.write_accesses            0                       # DTB write accesses
system.cpu.itb.stage2_mmu.stage2_tlb.write_hits            0                       # DTB write hits
system.cpu.itb.stage2_mmu.stage2_tlb.write_misses            0                       # DTB write misses
system.cpu.itb.walker.walkRequestOrigin_Requested::Data            0                       # Table walker requests started/completed, data/inst
system.cpu.itb.walker.walkRequestOrigin_Requested::Inst            0                       # Table walker requests started/completed, data/inst
system.cpu.itb.walker.walkRequestOrigin_Requested::total            0                       # Table walker requests started/completed, data/inst
system.cpu.itb.walker.walkRequestOrigin_Completed::Data            0                       # Table walker requests started/completed, data/inst
system.cpu.itb.walker.walkRequestOrigin_Completed::Inst            0                       # Table walker requests started/completed, data/inst
system.cpu.itb.walker.walkRequestOrigin_Completed::total            0                       # Table walker requests started/completed, data/inst
system.cpu.itb.walker.walkRequestOrigin::total            0                       # Table walker requests started/completed, data/inst
system.cpu.itb.walker.walks                         0                       # Table walker walks requested
system.cpu.itb.write_accesses                       0                       # DTB write accesses
system.cpu.itb.write_hits                           0                       # DTB write hits
system.cpu.itb.write_misses                         0                       # DTB write misses
system.cpu.numCycles                        161164150                       # number of cpu cycles simulated
system.cpu.numFetchSuspends                         0                       # Number of times Execute suspended instruction fetching
system.cpu.numWorkItemsCompleted                    0                       # number of work items this cpu completed
system.cpu.numWorkItemsStarted                      0                       # number of work items this cpu started
system.cpu.op_class_0::No_OpClass                   0      0.00%      0.00% # Class of committed instruction
system.cpu.op_class_0::IntAlu                46531400     46.44%     46.44% # Class of committed instruction
system.cpu.op_class_0::IntMult                  20720      0.02%     46.46% # Class of committed instruction
system.cpu.op_class_0::IntDiv                       0      0.00%     46.46% # Class of committed instruction
system.cpu.op_class_0::FloatAdd                     0      0.00%     46.46% # Class of committed instruction
system.cpu.op_class_0::FloatCmp                     0      0.00%     46.46% # Class of committed instruction
system.cpu.op_class_0::FloatCvt                     0      0.00%     46.46% # Class of committed instruction
system.cpu.op_class_0::FloatMult                    0      0.00%     46.46% # Class of committed instruction
system.cpu.op_class_0::FloatMultAcc                 0      0.00%     46.46% # Class of committed instruction
system.cpu.op_class_0::FloatDiv                     0      0.00%     46.46% # Class of committed instruction
system.cpu.op_class_0::FloatMisc                    0      0.00%     46.46% # Class of committed instruction
system.cpu.op_class_0::FloatSqrt                    0      0.00%     46.46% # Class of committed instruction
system.cpu.op_class_0::SimdAdd                      0      0.00%     46.46% # Class of committed instruction
system.cpu.op_class_0::SimdAddAcc                   0      0.00%     46.46% # Class of committed instruction
system.cpu.op_class_0::SimdAlu                      0      0.00%     46.46% # Class of committed instruction
system.cpu.op_class_0::SimdCmp                      0      0.00%     46.46% # Class of committed instruction
system.cpu.op_class_0::SimdCvt                      0      0.00%     46.46% # Class of committed instruction
system.cpu.op_class_0::SimdMisc                     0      0.00%     46.46% # Class of committed instruction
system.cpu.op_class_0::SimdMult                     0      0.00%     46.46% # Class of committed instruction
system.cpu.op_class_0::SimdMultAcc                  0      0.00%     46.46% # Class of committed instruction
system.cpu.op_class_0::SimdShift                    0      0.00%     46.46% # Class of committed instruction
system.cpu.op_class_0::SimdShiftAcc                 0      0.00%     46.46% # Class of committed instruction
system.cpu.op_class_0::SimdDiv                      0      0.00%     46.46% # Class of committed instruction
system.cpu.op_class_0::SimdSqrt                     0      0.00%     46.46% # Class of committed instruction
system.cpu.op_class_0::SimdFloatAdd                 0      0.00%     46.46% # Class of committed instruction
system.cpu.op_class_0::SimdFloatAlu                 0      0.00%     46.46% # Class of committed instruction
system.cpu.op_class_0::SimdFloatCmp                 0      0.00%     46.46% # Class of committed instruction
system.cpu.op_class_0::SimdFloatCvt                 0      0.00%     46.46% # Class of committed instruction
system.cpu.op_class_0::SimdFloatDiv                 0      0.00%     46.46% # Class of committed instruction
system.cpu.op_class_0::SimdFloatMisc               18      0.00%     46.46% # Class of committed instruction
system.cpu.op_class_0::SimdFloatMult                0      0.00%     46.46% # Class of committed instruction
system.cpu.op_class_0::SimdFloatMultAcc             0      0.00%     46.46% # Class of committed instruction
system.cpu.op_class_0::SimdFloatSqrt                0      0.00%     46.46% # Class of committed instruction
system.cpu.op_class_0::SimdReduceAdd                0      0.00%     46.46% # Class of committed instruction
system.cpu.op_class_0::SimdReduceAlu                0      0.00%     46.46% # Class of committed instruction
system.cpu.op_class_0::SimdReduceCmp                0      0.00%     46.46% # Class of committed instruction
system.cpu.op_class_0::SimdFloatReduceAdd            0      0.00%     46.46% # Class of committed instruction
system.cpu.op_class_0::SimdFloatReduceCmp            0      0.00%     46.46% # Class of committed instruction
system.cpu.op_class_0::SimdAes                      0      0.00%     46.46% # Class of committed instruction
system.cpu.op_class_0::SimdAesMix                   0      0.00%     46.46% # Class of committed instruction
system.cpu.op_class_0::SimdSha1Hash                 0      0.00%     46.46% # Class of committed instruction
system.cpu.op_class_0::SimdSha1Hash2                0      0.00%     46.46% # Class of committed instruction
system.cpu.op_class_0::SimdSha256Hash               0      0.00%     46.46% # Class of committed instruction
system.cpu.op_class_0::SimdSha256Hash2              0      0.00%     46.46% # Class of committed instruction
system.cpu.op_class_0::SimdShaSigma2                0      0.00%     46.46% # Class of committed instruction
system.cpu.op_class_0::SimdShaSigma3                0      0.00%     46.46% # Class of committed instruction
system.cpu.op_class_0::SimdPredAlu                  0      0.00%     46.46% # Class of committed instruction
system.cpu.op_class_0::MemRead               42693601     42.61%     89.07% # Class of committed instruction
system.cpu.op_class_0::MemWrite              10950624     10.93%    100.00% # Class of committed instruction
system.cpu.op_class_0::FloatMemRead                 0      0.00%    100.00% # Class of committed instruction
system.cpu.op_class_0::FloatMemWrite                0      0.00%    100.00% # Class of committed instruction
system.cpu.op_class_0::IprAccess                    0      0.00%    100.00% # Class of committed instruction
system.cpu.op_class_0::InstPrefetch                 0      0.00%    100.00% # Class of committed instruction
system.cpu.op_class_0::total                100196363                       # Class of committed instruction
system.cpu.tickCycles                       132248287                       # Number of cycles that the object actually ticked
system.cpu.workload.numSyscalls                    84                       # Number of system calls
system.membus.snoop_filter.hit_multi_requests            0                       # Number of requests hitting in the snoop filter with multiple (>1) holders of the requested data.
system.membus.snoop_filter.hit_multi_snoops            0                       # Number of snoops hitting in the snoop filter with multiple (>1) holders of the requested data.
system.membus.snoop_filter.hit_single_requests        57895                       # Number of requests hitting in the snoop filter with a single holder of the requested data.
system.membus.snoop_filter.hit_single_snoops            0                       # Number of snoops hitting in the snoop filter with a single holder of the requested data.
system.membus.snoop_filter.tot_requests        132253                       # Total number of requests made to the snoop filter.
system.membus.snoop_filter.tot_snoops               0                       # Total number of snoops made to the snoop filter.
system.tol2bus.snoop_filter.hit_multi_requests          149                       # Number of requests hitting in the snoop filter with multiple (>1) holders of the requested data.
system.tol2bus.snoop_filter.hit_multi_snoops            1                       # Number of snoops hitting in the snoop filter with multiple (>1) holders of the requested data.
system.tol2bus.snoop_filter.hit_single_requests       558297                       # Number of requests hitting in the snoop filter with a single holder of the requested data.
system.tol2bus.snoop_filter.hit_single_snoops          191                       # Number of snoops hitting in the snoop filter with a single holder of the requested data.
system.tol2bus.snoop_filter.tot_requests      1117227                       # Total number of requests made to the snoop filter.
system.tol2bus.snoop_filter.tot_snoops            192                       # Total number of snoops made to the snoop filter.
system.membus.pwrStateResidencyTicks::UNDEFINED  80582075000                       # Cumulative time (in ticks) in various power states
system.membus.trans_dist::ReadResp              19375                       # Transaction distribution
system.membus.trans_dist::WritebackDirty        40236                       # Transaction distribution
system.membus.trans_dist::CleanEvict            17650                       # Transaction distribution
system.membus.trans_dist::ReadExReq             54992                       # Transaction distribution
system.membus.trans_dist::ReadExResp            54992                       # Transaction distribution
system.membus.trans_dist::ReadSharedReq         19375                       # Transaction distribution
system.membus.pkt_count_system.l2.mem_side::system.mem_ctrls.port       206620                       # Packet count per connected master and slave (bytes)
system.membus.pkt_count::total                 206620                       # Packet count per connected master and slave (bytes)
system.membus.pkt_size_system.l2.mem_side::system.mem_ctrls.port     29338368                       # Cumulative packet size per connected master and slave (bytes)
system.membus.pkt_size::total                29338368                       # Cumulative packet size per connected master and slave (bytes)
system.membus.snoops                                0                       # Total snoops (count)
system.membus.snoopTraffic                          0                       # Total snoop traffic (bytes)
system.membus.snoop_fanout::samples             74367                       # Request fanout histogram
system.membus.snoop_fanout::mean                    0                       # Request fanout histogram
system.membus.snoop_fanout::stdev                   0                       # Request fanout histogram
system.membus.snoop_fanout::underflows              0      0.00%      0.00% # Request fanout histogram
system.membus.snoop_fanout::0                   74367    100.00%    100.00% # Request fanout histogram
system.membus.snoop_fanout::1                       0      0.00%    100.00% # Request fanout histogram
system.membus.snoop_fanout::overflows               0      0.00%    100.00% # Request fanout histogram
system.membus.snoop_fanout::min_value               0                       # Request fanout histogram
system.membus.snoop_fanout::max_value               0                       # Request fanout histogram
system.membus.snoop_fanout::total               74367                       # Request fanout histogram
system.membus.respLayer1.occupancy         1292912500                       # Layer occupancy (ticks)
system.membus.respLayer1.utilization              1.6                       # Layer utilization (%)
system.membus.reqLayer0.occupancy           797936000                       # Layer occupancy (ticks)
system.membus.reqLayer0.utilization               1.0                       # Layer utilization (%)
system.tol2bus.pwrStateResidencyTicks::UNDEFINED  80582075000                       # Cumulative time (in ticks) in various power states
system.tol2bus.trans_dist::ReadResp            300621                       # Transaction distribution
system.tol2bus.trans_dist::WritebackDirty       576553                       # Transaction distribution
system.tol2bus.trans_dist::WritebackClean          321                       # Transaction distribution
system.tol2bus.trans_dist::CleanEvict           39500                       # Transaction distribution
system.tol2bus.trans_dist::ReadExReq           258310                       # Transaction distribution
system.tol2bus.trans_dist::ReadExResp          258309                       # Transaction distribution
system.tol2bus.trans_dist::ReadCleanReq           443                       # Transaction distribution
system.tol2bus.trans_dist::ReadSharedReq       300178                       # Transaction distribution
system.tol2bus.pkt_count_system.cpu.icache.mem_side::system.l2.cpu_side         1207                       # Packet count per connected master and slave (bytes)
system.tol2bus.pkt_count_system.cpu.dcache.mem_side::system.l2.cpu_side      1674950                       # Packet count per connected master and slave (bytes)
system.tol2bus.pkt_count::total               1676157                       # Packet count per connected master and slave (bytes)
system.tol2bus.pkt_size_system.cpu.icache.mem_side::system.l2.cpu_side       195584                       # Cumulative packet size per connected master and slave (bytes)
system.tol2bus.pkt_size_system.cpu.dcache.mem_side::system.l2.cpu_side    280269824                       # Cumulative packet size per connected master and slave (bytes)
system.tol2bus.pkt_size::total              280465408                       # Cumulative packet size per connected master and slave (bytes)
system.tol2bus.snoops                           58078                       # Total snoops (count)
system.tol2bus.snoopTraffic                  10300416                       # Total snoop traffic (bytes)
system.tol2bus.snoop_fanout::samples           617009                       # Request fanout histogram
system.tol2bus.snoop_fanout::mean            0.000556                       # Request fanout histogram
system.tol2bus.snoop_fanout::stdev           0.023640                       # Request fanout histogram
system.tol2bus.snoop_fanout::underflows             0      0.00%      0.00% # Request fanout histogram
system.tol2bus.snoop_fanout::0                 616667     99.94%     99.94% # Request fanout histogram
system.tol2bus.snoop_fanout::1                    341      0.06%    100.00% # Request fanout histogram
system.tol2bus.snoop_fanout::2                      1      0.00%    100.00% # Request fanout histogram
system.tol2bus.snoop_fanout::overflows              0      0.00%    100.00% # Request fanout histogram
system.tol2bus.snoop_fanout::min_value              0                       # Request fanout histogram
system.tol2bus.snoop_fanout::max_value              2                       # Request fanout histogram
system.tol2bus.snoop_fanout::total             617009                       # Request fanout histogram
system.tol2bus.reqLayer0.occupancy         2705165500                       # Layer occupancy (ticks)
system.tol2bus.reqLayer0.utilization              3.4                       # Layer utilization (%)
system.tol2bus.respLayer1.occupancy        2513194494                       # Layer occupancy (ticks)
system.tol2bus.respLayer1.utilization             3.1                       # Layer utilization (%)
system.tol2bus.respLayer0.occupancy           1993500                       # Layer occupancy (ticks)
system.tol2bus.respLayer0.utilization             0.0                       # Layer utilization (%)
system.voltage_domain.voltage                       1                       # Voltage in Volts
system.clk_domain.clock                          1000                       # Clock period in ticks
system.l2.pwrStateResidencyTicks::UNDEFINED  80582075000                       # Cumulative time (in ticks) in various power states
system.l2.demand_hits::.cpu.inst                  150                       # number of demand (read+write) hits
system.l2.demand_hits::.cpu.data               484408                       # number of demand (read+write) hits
system.l2.demand_hits::total                   484558                       # number of demand (read+write) hits
system.l2.overall_hits::.cpu.inst                 150                       # number of overall hits
system.l2.overall_hits::.cpu.data              484408                       # number of overall hits
system.l2.overall_hits::total                  484558                       # number of overall hits
system.l2.demand_misses::.cpu.inst                293                       # number of demand (read+write) misses
system.l2.demand_misses::.cpu.data              74080                       # number of demand (read+write) misses
system.l2.demand_misses::total                  74373                       # number of demand (read+write) misses
system.l2.overall_misses::.cpu.inst               293                       # number of overall misses
system.l2.overall_misses::.cpu.data             74080                       # number of overall misses
system.l2.overall_misses::total                 74373                       # number of overall misses
system.l2.demand_miss_latency::.cpu.inst     28833500                       # number of demand (read+write) miss cycles
system.l2.demand_miss_latency::.cpu.data   8804638500                       # number of demand (read+write) miss cycles
system.l2.demand_miss_latency::total       8833472000                       # number of demand (read+write) miss cycles
system.l2.overall_miss_latency::.cpu.inst     28833500                       # number of overall miss cycles
system.l2.overall_miss_latency::.cpu.data   8804638500                       # number of overall miss cycles
system.l2.overall_miss_latency::total      8833472000                       # number of overall miss cycles
system.l2.demand_accesses::.cpu.inst              443                       # number of demand (read+write) accesses
system.l2.demand_accesses::.cpu.data           558488                       # number of demand (read+write) accesses
system.l2.demand_accesses::total               558931                       # number of demand (read+write) accesses
system.l2.overall_accesses::.cpu.inst             443                       # number of overall (read+write) accesses
system.l2.overall_accesses::.cpu.data          558488                       # number of overall (read+write) accesses
system.l2.overall_accesses::total              558931                       # number of overall (read+write) accesses
system.l2.demand_miss_rate::.cpu.inst        0.661400                       # miss rate for demand accesses
system.l2.demand_miss_rate::.cpu.data        0.132644                       # miss rate for demand accesses
system.l2.demand_miss_rate::total            0.133063                       # miss rate for demand accesses
system.l2.overall_miss_rate::.cpu.inst       0.661400                       # miss rate for overall accesses
system.l2.overall_miss_rate::.cpu.data       0.132644                       # miss rate for overall accesses
system.l2.overall_miss_rate::total           0.133063                       # miss rate for overall accesses
system.l2.demand_avg_miss_latency::.cpu.inst 98407.849829                       # average overall miss latency
system.l2.demand_avg_miss_latency::.cpu.data 118853.111501                       # average overall miss latency
system.l2.demand_avg_miss_latency::total 118772.565313                       # average overall miss latency
system.l2.overall_avg_miss_latency::.cpu.inst 98407.849829                       # average overall miss latency
system.l2.overall_avg_miss_latency::.cpu.data 118853.111501                       # average overall miss latency
system.l2.overall_avg_miss_latency::total 118772.565313                       # average overall miss latency
system.l2.blocked_cycles::no_mshrs                  0                       # number of cycles access was blocked
system.l2.blocked_cycles::no_targets                0                       # number of cycles access was blocked
system.l2.blocked::no_mshrs                         0                       # number of cycles access was blocked
system.l2.blocked::no_targets                       0                       # number of cycles access was blocked
system.l2.avg_blocked_cycles::no_mshrs            nan                       # average number of cycles each access was blocked
system.l2.avg_blocked_cycles::no_targets          nan                       # average number of cycles each access was blocked
system.l2.writebacks::.writebacks               40236                       # number of writebacks
system.l2.writebacks::total                     40236                       # number of writebacks
system.l2.demand_mshr_hits::.cpu.data               6                       # number of demand (read+write) MSHR hits
system.l2.demand_mshr_hits::total                   6                       # number of demand (read+write) MSHR hits
system.l2.overall_mshr_hits::.cpu.data              6                       # number of overall MSHR hits
system.l2.overall_mshr_hits::total                  6                       # number of overall MSHR hits
system.l2.demand_mshr_misses::.cpu.inst           293                       # number of demand (read+write) MSHR misses
system.l2.demand_mshr_misses::.cpu.data         74074                       # number of demand (read+write) MSHR misses
system.l2.demand_mshr_misses::total             74367                       # number of demand (read+write) MSHR misses
system.l2.overall_mshr_misses::.cpu.inst          293                       # number of overall MSHR misses
system.l2.overall_mshr_misses::.cpu.data        74074                       # number of overall MSHR misses
system.l2.overall_mshr_misses::total            74367                       # number of overall MSHR misses
system.l2.demand_mshr_miss_latency::.cpu.inst     25903500                       # number of demand (read+write) MSHR miss cycles
system.l2.demand_mshr_miss_latency::.cpu.data   8063476000                       # number of demand (read+write) MSHR miss cycles
system.l2.demand_mshr_miss_latency::total   8089379500                       # number of demand (read+write) MSHR miss cycles
system.l2.overall_mshr_miss_latency::.cpu.inst     25903500                       # number of overall MSHR miss cycles
system.l2.overall_mshr_miss_latency::.cpu.data   8063476000                       # number of overall MSHR miss cycles
system.l2.overall_mshr_miss_latency::total   8089379500                       # number of overall MSHR miss cycles
system.l2.demand_mshr_miss_rate::.cpu.inst     0.661400                       # mshr miss rate for demand accesses
system.l2.demand_mshr_miss_rate::.cpu.data     0.132633                       # mshr miss rate for demand accesses
system.l2.demand_mshr_miss_rate::total       0.133052                       # mshr miss rate for demand accesses
system.l2.overall_mshr_miss_rate::.cpu.inst     0.661400                       # mshr miss rate for overall accesses
system.l2.overall_mshr_miss_rate::.cpu.data     0.132633                       # mshr miss rate for overall accesses
system.l2.overall_mshr_miss_rate::total      0.133052                       # mshr miss rate for overall accesses
system.l2.demand_avg_mshr_miss_latency::.cpu.inst 88407.849829                       # average overall mshr miss latency
system.l2.demand_avg_mshr_miss_latency::.cpu.data 108857.034857                       # average overall mshr miss latency
system.l2.demand_avg_mshr_miss_latency::total 108776.466712                       # average overall mshr miss latency
system.l2.overall_avg_mshr_miss_latency::.cpu.inst 88407.849829                       # average overall mshr miss latency
system.l2.overall_avg_mshr_miss_latency::.cpu.data 108857.034857                       # average overall mshr miss latency
system.l2.overall_avg_mshr_miss_latency::total 108776.466712                       # average overall mshr miss latency
system.l2.replacements                          58078                       # number of replacements
system.l2.WritebackDirty_hits::.writebacks       536317                       # number of WritebackDirty hits
system.l2.WritebackDirty_hits::total           536317                       # number of WritebackDirty hits
system.l2.WritebackDirty_accesses::.writebacks       536317                       # number of WritebackDirty accesses(hits+misses)
system.l2.WritebackDirty_accesses::total       536317                       # number of WritebackDirty accesses(hits+misses)
system.l2.WritebackClean_hits::.writebacks          300                       # number of WritebackClean hits
system.l2.WritebackClean_hits::total              300                       # number of WritebackClean hits
system.l2.WritebackClean_accesses::.writebacks          300                       # number of WritebackClean accesses(hits+misses)
system.l2.WritebackClean_accesses::total          300                       # number of WritebackClean accesses(hits+misses)
system.l2.ReadExReq_hits::.cpu.data            203318                       # number of ReadExReq hits
system.l2.ReadExReq_hits::total                203318                       # number of ReadExReq hits
system.l2.ReadExReq_misses::.cpu.data           54992                       # number of ReadExReq misses
system.l2.ReadExReq_misses::total               54992                       # number of ReadExReq misses
system.l2.ReadExReq_miss_latency::.cpu.data   6893175500                       # number of ReadExReq miss cycles
system.l2.ReadExReq_miss_latency::total    6893175500                       # number of ReadExReq miss cycles
system.l2.ReadExReq_accesses::.cpu.data        258310                       # number of ReadExReq accesses(hits+misses)
system.l2.ReadExReq_accesses::total            258310                       # number of ReadExReq accesses(hits+misses)
system.l2.ReadExReq_miss_rate::.cpu.data     0.212891                       # miss rate for ReadExReq accesses
system.l2.ReadExReq_miss_rate::total         0.212891                       # miss rate for ReadExReq accesses
system.l2.ReadExReq_avg_miss_latency::.cpu.data 125348.696174                       # average ReadExReq miss latency
system.l2.ReadExReq_avg_miss_latency::total 125348.696174                       # average ReadExReq miss latency
system.l2.ReadExReq_mshr_misses::.cpu.data        54992                       # number of ReadExReq MSHR misses
system.l2.ReadExReq_mshr_misses::total          54992                       # number of ReadExReq MSHR misses
system.l2.ReadExReq_mshr_miss_latency::.cpu.data   6343255500                       # number of ReadExReq MSHR miss cycles
system.l2.ReadExReq_mshr_miss_latency::total   6343255500                       # number of ReadExReq MSHR miss cycles
system.l2.ReadExReq_mshr_miss_rate::.cpu.data     0.212891                       # mshr miss rate for ReadExReq accesses
system.l2.ReadExReq_mshr_miss_rate::total     0.212891                       # mshr miss rate for ReadExReq accesses
system.l2.ReadExReq_avg_mshr_miss_latency::.cpu.data 115348.696174                       # average ReadExReq mshr miss latency
system.l2.ReadExReq_avg_mshr_miss_latency::total 115348.696174                       # average ReadExReq mshr miss latency
system.l2.ReadCleanReq_hits::.cpu.inst            150                       # number of ReadCleanReq hits
system.l2.ReadCleanReq_hits::total                150                       # number of ReadCleanReq hits
system.l2.ReadCleanReq_misses::.cpu.inst          293                       # number of ReadCleanReq misses
system.l2.ReadCleanReq_misses::total              293                       # number of ReadCleanReq misses
system.l2.ReadCleanReq_miss_latency::.cpu.inst     28833500                       # number of ReadCleanReq miss cycles
system.l2.ReadCleanReq_miss_latency::total     28833500                       # number of ReadCleanReq miss cycles
system.l2.ReadCleanReq_accesses::.cpu.inst          443                       # number of ReadCleanReq accesses(hits+misses)
system.l2.ReadCleanReq_accesses::total            443                       # number of ReadCleanReq accesses(hits+misses)
system.l2.ReadCleanReq_miss_rate::.cpu.inst     0.661400                       # miss rate for ReadCleanReq accesses
system.l2.ReadCleanReq_miss_rate::total      0.661400                       # miss rate for ReadCleanReq accesses
system.l2.ReadCleanReq_avg_miss_latency::.cpu.inst 98407.849829                       # average ReadCleanReq miss latency
system.l2.ReadCleanReq_avg_miss_latency::total 98407.849829                       # average ReadCleanReq miss latency
system.l2.ReadCleanReq_mshr_misses::.cpu.inst          293                       # number of ReadCleanReq MSHR misses
system.l2.ReadCleanReq_mshr_misses::total          293                       # number of ReadCleanReq MSHR misses
system.l2.ReadCleanReq_mshr_miss_latency::.cpu.inst     25903500                       # number of ReadCleanReq MSHR miss cycles
system.l2.ReadCleanReq_mshr_miss_latency::total     25903500                       # number of ReadCleanReq MSHR miss cycles
system.l2.ReadCleanReq_mshr_miss_rate::.cpu.inst     0.661400                       # mshr miss rate for ReadCleanReq accesses
system.l2.ReadCleanReq_mshr_miss_rate::total     0.661400                       # mshr miss rate for ReadCleanReq accesses
system.l2.ReadCleanReq_avg_mshr_miss_latency::.cpu.inst 88407.849829                       # average ReadCleanReq mshr miss latency
system.l2.ReadCleanReq_avg_mshr_miss_latency::total 88407.849829                       # average ReadCleanReq mshr miss latency
system.l2.ReadSharedReq_hits::.cpu.data        281090                       # number of ReadSharedReq hits
system.l2.ReadSharedReq_hits::total            281090                       # number of ReadSharedReq hits
system.l2.ReadSharedReq_misses::.cpu.data        19088                       # number of ReadSharedReq misses
system.l2.ReadSharedReq_misses::total           19088                       # number of ReadSharedReq misses
system.l2.ReadSharedReq_miss_latency::.cpu.data   1911463000                       # number of ReadSharedReq miss cycles
system.l2.ReadSharedReq_miss_latency::total   1911463000                       # number of ReadSharedReq miss cycles
system.l2.ReadSharedReq_accesses::.cpu.data       300178                       # number of ReadSharedReq accesses(hits+misses)
system.l2.ReadSharedReq_accesses::total        300178                       # number of ReadSharedReq accesses(hits+misses)
system.l2.ReadSharedReq_miss_rate::.cpu.data     0.063589                       # miss rate for ReadSharedReq accesses
system.l2.ReadSharedReq_miss_rate::total     0.063589                       # miss rate for ReadSharedReq accesses
system.l2.ReadSharedReq_avg_miss_latency::.cpu.data 100139.511735                       # average ReadSharedReq miss latency
system.l2.ReadSharedReq_avg_miss_latency::total 100139.511735                       # average ReadSharedReq miss latency
system.l2.ReadSharedReq_mshr_hits::.cpu.data            6                       # number of ReadSharedReq MSHR hits
system.l2.ReadSharedReq_mshr_hits::total            6                       # number of ReadSharedReq MSHR hits
system.l2.ReadSharedReq_mshr_misses::.cpu.data        19082                       # number of ReadSharedReq MSHR misses
system.l2.ReadSharedReq_mshr_misses::total        19082                       # number of ReadSharedReq MSHR misses
system.l2.ReadSharedReq_mshr_miss_latency::.cpu.data   1720220500                       # number of ReadSharedReq MSHR miss cycles
system.l2.ReadSharedReq_mshr_miss_latency::total   1720220500                       # number of ReadSharedReq MSHR miss cycles
system.l2.ReadSharedReq_mshr_miss_rate::.cpu.data     0.063569                       # mshr miss rate for ReadSharedReq accesses
system.l2.ReadSharedReq_mshr_miss_rate::total     0.063569                       # mshr miss rate for ReadSharedReq accesses
system.l2.ReadSharedReq_avg_mshr_miss_latency::.cpu.data 90148.857562                       # average ReadSharedReq mshr miss latency
system.l2.ReadSharedReq_avg_mshr_miss_latency::total 90148.857562                       # average ReadSharedReq mshr miss latency
system.l2.tags.pwrStateResidencyTicks::UNDEFINED  80582075000                       # Cumulative time (in ticks) in various power states
system.l2.tags.tagsinuse                 15846.249764                       # Cycle average of tags in use
system.l2.tags.total_refs                     1117072                       # Total number of references to valid blocks.
system.l2.tags.sampled_refs                     74462                       # Sample count of references to valid blocks.
system.l2.tags.avg_refs                     15.001907                       # Average number of references to valid blocks.
system.l2.tags.warmup_cycle                     92000                       # Cycle when the warmup percentage was hit.
system.l2.tags.occ_blocks::.writebacks      41.287572                       # Average occupied blocks per requestor
system.l2.tags.occ_blocks::.cpu.inst        51.251494                       # Average occupied blocks per requestor
system.l2.tags.occ_blocks::.cpu.data     15753.710697                       # Average occupied blocks per requestor
system.l2.tags.occ_percent::.writebacks      0.002520                       # Average percentage of cache occupancy
system.l2.tags.occ_percent::.cpu.inst        0.003128                       # Average percentage of cache occupancy
system.l2.tags.occ_percent::.cpu.data        0.961530                       # Average percentage of cache occupancy
system.l2.tags.occ_percent::total            0.967178                       # Average percentage of cache occupancy
system.l2.tags.occ_task_id_blocks::1024         16384                       # Occupied blocks per task id
system.l2.tags.age_task_id_blocks_1024::2            3                       # Occupied blocks per task id
system.l2.tags.age_task_id_blocks_1024::3         1032                       # Occupied blocks per task id
system.l2.tags.age_task_id_blocks_1024::4        15349                       # Occupied blocks per task id
system.l2.tags.occ_task_id_percent::1024            1                       # Percentage of cache occupancy per task id
system.l2.tags.tag_accesses                   9011086                       # Number of tag accesses
system.l2.tags.data_accesses                  9011086                       # Number of data accesses
system.cpu_voltage_domain.voltage                   1                       # Voltage in Volts
system.mem_ctrls.pwrStateResidencyTicks::UNDEFINED  80582075000                       # Cumulative time (in ticks) in various power states
system.mem_ctrls.bytes_read::.cpu.inst          75008                       # Number of bytes read from this memory
system.mem_ctrls.bytes_read::.cpu.data       18962944                       # Number of bytes read from this memory
system.mem_ctrls.bytes_read::total           19037952                       # Number of bytes read from this memory
system.mem_ctrls.bytes_inst_read::.cpu.inst        75008                       # Number of instructions bytes read from this memory
system.mem_ctrls.bytes_inst_read::total         75008                       # Number of instructions bytes read from this memory
system.mem_ctrls.bytes_written::.writebacks     10300416                       # Number of bytes written to this memory
system.mem_ctrls.bytes_written::total        10300416                       # Number of bytes written to this memory
system.mem_ctrls.num_reads::.cpu.inst             293                       # Number of read requests responded to by this memory
system.mem_ctrls.num_reads::.cpu.data           74074                       # Number of read requests responded to by this memory
system.mem_ctrls.num_reads::total               74367                       # Number of read requests responded to by this memory
system.mem_ctrls.num_writes::.writebacks        40236                       # Number of write requests responded to by this memory
system.mem_ctrls.num_writes::total              40236                       # Number of write requests responded to by this memory
system.mem_ctrls.bw_read::.cpu.inst            930827                       # Total read bandwidth from this memory (bytes/s)
system.mem_ctrls.bw_read::.cpu.data         235324593                       # Total read bandwidth from this memory (bytes/s)
system.mem_ctrls.bw_read::total             236255420                       # Total read bandwidth from this memory (bytes/s)
system.mem_ctrls.bw_inst_read::.cpu.inst       930827                       # Instruction read bandwidth from this memory (bytes/s)
system.mem_ctrls.bw_inst_read::total           930827                       # Instruction read bandwidth from this memory (bytes/s)
system.mem_ctrls.bw_write::.writebacks      127825152                       # Write bandwidth from this memory (bytes/s)
system.mem_ctrls.bw_write::total            127825152                       # Write bandwidth from this memory (bytes/s)
system.mem_ctrls.bw_total::.writebacks      127825152                       # Total bandwidth to/from this memory (bytes/s)
system.mem_ctrls.bw_total::.cpu.inst           930827                       # Total bandwidth to/from this memory (bytes/s)
system.mem_ctrls.bw_total::.cpu.data        235324593                       # Total bandwidth to/from this memory (bytes/s)
system.mem_ctrls.bw_total::total            364080573                       # Total bandwidth to/from this memory (bytes/s)
system.mem_ctrls.avgPriority_.writebacks::samples    160944.00                       # Average QoS priority value for accepted requests
system.mem_ctrls.avgPriority_.cpu.inst::samples      1172.00                       # Average QoS priority value for accepted requests
system.mem_ctrls.avgPriority_.cpu.data::samples    296264.00                       # Average QoS priority value for accepted requests
system.mem_ctrls.priorityMinLatency      0.000000018750                       # per QoS priority minimum request to response latency (s)
system.mem_ctrls.priorityMaxLatency      0.010290902750                       # per QoS priority maximum request to response latency (s)
system.mem_ctrls.numReadWriteTurnArounds         9855                       # Number of turnarounds from READ to WRITE
system.mem_ctrls.numWriteReadTurnArounds         9855                       # Number of turnarounds from WRITE to READ
system.mem_ctrls.numStayReadState              411837                       # Number of times bus staying in READ state
system.mem_ctrls.numStayWriteState             151295                       # Number of times bus staying in WRITE state
system.mem_ctrls.readReqs                       74367                       # Number of read requests accepted
system.mem_ctrls.writeReqs                      40236                       # Number of write requests accepted
system.mem_ctrls.readBursts                    297468                       # Number of DRAM read bursts, including those serviced by the write queue
system.mem_ctrls.writeBursts                   160944                       # Number of DRAM write bursts, including those merged in the write queue
system.mem_ctrls.servicedByWrQ                     32                       # Number of DRAM read bursts serviced by the write queue
system.mem_ctrls.mergedWrBursts                     0                       # Number of DRAM write bursts merged with an existing one
system.mem_ctrls.neitherReadNorWriteReqs            0                       # Number of requests that are neither read nor write
system.mem_ctrls.perBankRdBursts::0             18912                       # Per bank write bursts
system.mem_ctrls.perBankRdBursts::1             18820                       # Per bank write bursts
system.mem_ctrls.perBankRdBursts::2             18768                       # Per bank write bursts
system.mem_ctrls.perBankRdBursts::3             18480                       # Per bank write bursts
system.mem_ctrls.perBankRdBursts::4             18584                       # Per bank write bursts
system.mem_ctrls.perBankRdBursts::5             18556                       # Per bank write bursts
system.mem_ctrls.perBankRdBursts::6             18472                       # Per bank write bursts
system.mem_ctrls.perBankRdBursts::7             18588                       # Per bank write bursts
system.mem_ctrls.perBankRdBursts::8             18496                       # Per bank write bursts
system.mem_ctrls.perBankRdBursts::9             18496                       # Per bank write bursts
system.mem_ctrls.perBankRdBursts::10            18676                       # Per bank write bursts
system.mem_ctrls.perBankRdBursts::11            18648                       # Per bank write bursts
system.mem_ctrls.perBankRdBursts::12            18612                       # Per bank write bursts
system.mem_ctrls.perBankRdBursts::13            18360                       # Per bank write bursts
system.mem_ctrls.perBankRdBursts::14            18364                       # Per bank write bursts
system.mem_ctrls.perBankRdBursts::15            18604                       # Per bank write bursts
system.mem_ctrls.perBankWrBursts::0             10112                       # Per bank write bursts
system.mem_ctrls.perBankWrBursts::1             10128                       # Per bank write bursts
system.mem_ctrls.perBankWrBursts::2             10188                       # Per bank write bursts
system.mem_ctrls.perBankWrBursts::3             10160                       # Per bank write bursts
system.mem_ctrls.perBankWrBursts::4             10104                       # Per bank write bursts
system.mem_ctrls.perBankWrBursts::5             10076                       # Per bank write bursts
system.mem_ctrls.perBankWrBursts::6             10052                       # Per bank write bursts
system.mem_ctrls.perBankWrBursts::7             10116                       # Per bank write bursts
system.mem_ctrls.perBankWrBursts::8             10028                       # Per bank write bursts
system.mem_ctrls.perBankWrBursts::9              9984                       # Per bank write bursts
system.mem_ctrls.perBankWrBursts::10             9984                       # Per bank write bursts
system.mem_ctrls.perBankWrBursts::11             9988                       # Per bank write bursts
system.mem_ctrls.perBankWrBursts::12             9980                       # Per bank write bursts
system.mem_ctrls.perBankWrBursts::13            10005                       # Per bank write bursts
system.mem_ctrls.perBankWrBursts::14             9992                       # Per bank write bursts
system.mem_ctrls.perBankWrBursts::15            10032                       # Per bank write bursts
system.mem_ctrls.avgRdQLen                       4.13                       # Average read queue length when enqueuing
system.mem_ctrls.avgWrQLen                      27.67                       # Average write queue length when enqueuing
system.mem_ctrls.totQLat                  11639672500                       # Total ticks spent queuing
system.mem_ctrls.totBusLat                 1487180000                       # Total ticks spent in databus transfers
system.mem_ctrls.totMemAccLat             17216597500                       # Total ticks spent from burst creation until serviced by the DRAM
system.mem_ctrls.avgQLat                     39133.37                       # Average queueing delay per DRAM burst
system.mem_ctrls.avgBusLat                    5000.00                       # Average bus latency per DRAM burst
system.mem_ctrls.avgMemAccLat                57883.37                       # Average memory access latency per DRAM burst
system.mem_ctrls.numRdRetry                         0                       # Number of times read queue was full causing retry
system.mem_ctrls.numWrRetry                         0                       # Number of times write queue was full causing retry
system.mem_ctrls.readRowHits                   267850                       # Number of row buffer hits during reads
system.mem_ctrls.writeRowHits                  144924                       # Number of row buffer hits during writes
system.mem_ctrls.readRowHitRate                 90.05                       # Row buffer hit rate for reads
system.mem_ctrls.writeRowHitRate                90.05                       # Row buffer hit rate for writes
system.mem_ctrls.readPktSize::0                     0                       # Read request sizes (log2)
system.mem_ctrls.readPktSize::1                     0                       # Read request sizes (log2)
system.mem_ctrls.readPktSize::2                     0                       # Read request sizes (log2)
system.mem_ctrls.readPktSize::3                     0                       # Read request sizes (log2)
system.mem_ctrls.readPktSize::4                     0                       # Read request sizes (log2)
system.mem_ctrls.readPktSize::5                     0                       # Read request sizes (log2)
system.mem_ctrls.readPktSize::6                297468                       # Read request sizes (log2)
system.mem_ctrls.writePktSize::0                    0                       # Write request sizes (log2)
system.mem_ctrls.writePktSize::1                    0                       # Write request sizes (log2)
system.mem_ctrls.writePktSize::2                    0                       # Write request sizes (log2)
system.mem_ctrls.writePktSize::3                    0                       # Write request sizes (log2)
system.mem_ctrls.writePktSize::4                    0                       # Write request sizes (log2)
system.mem_ctrls.writePktSize::5                    0                       # Write request sizes (log2)
system.mem_ctrls.writePktSize::6               160944                       # Write request sizes (log2)
system.mem_ctrls.rdQLenPdf::0                   58554                       # What read queue length does an incoming req see
system.mem_ctrls.rdQLenPdf::1                   58632                       # What read queue length does an incoming req see
system.mem_ctrls.rdQLenPdf::2                   58728                       # What read queue length does an incoming req see
system.mem_ctrls.rdQLenPdf::3                   59815                       # What read queue length does an incoming req see
system.mem_ctrls.rdQLenPdf::4                   15802                       # What read queue length does an incoming req see
system.mem_ctrls.rdQLenPdf::5                   15724                       # What read queue length does an incoming req see
system.mem_ctrls.rdQLenPdf::6                   15628                       # What read queue length does an incoming req see
system.mem_ctrls.rdQLenPdf::7                   14541                       # What read queue length does an incoming req see
system.mem_ctrls.rdQLenPdf::8                       3                       # What read queue length does an incoming req see
system.mem_ctrls.rdQLenPdf::9                       3                       # What read queue length does an incoming req see
system.mem_ctrls.rdQLenPdf::10                      3                       # What read queue length does an incoming req see
system.mem_ctrls.rdQLenPdf::11                      3                       # What read queue length does an incoming req see
system.mem_ctrls.rdQLenPdf::12                      0                       # What read queue length does an incoming req see
system.mem_ctrls.rdQLenPdf::13                      0                       # What read queue length does an incoming req see
system.mem_ctrls.rdQLenPdf::14                      0                       # What read queue length does an incoming req see
system.mem_ctrls.rdQLenPdf::15                      0                       # What read queue length does an incoming req see
system.mem_ctrls.rdQLenPdf::16                      0                       # What read queue length does an incoming req see
system.mem_ctrls.rdQLenPdf::17                      0                       # What read queue length does an incoming req see
system.mem_ctrls.rdQLenPdf::18                      0                       # What read queue length does an incoming req see
system.mem_ctrls.rdQLenPdf::19                      0                       # What read queue length does an incoming req see
system.mem_ctrls.rdQLenPdf::20                      0                       # What read queue length does an incoming req see
system.mem_ctrls.rdQLenPdf::21                      0                       # What read queue length does an incoming req see
system.mem_ctrls.rdQLenPdf::22                      0                       # What read queue length does an incoming req see
system.mem_ctrls.rdQLenPdf::23                      0                       # What read queue length does an incoming req see
system.mem_ctrls.rdQLenPdf::24                      0                       # What read queue length does an incoming req see
system.mem_ctrls.rdQLenPdf::25                      0                       # What read queue length does an incoming req see
system.mem_ctrls.rdQLenPdf::26                      0                       # What read queue length does an incoming req see
system.mem_ctrls.rdQLenPdf::27                      0                       # What read queue length does an incoming req see
system.mem_ctrls.rdQLenPdf::28                      0                       # What read queue length does an incoming req see
system.mem_ctrls.rdQLenPdf::29                      0                       # What read queue length does an incoming req see
system.mem_ctrls.rdQLenPdf::30                      0                       # What read queue length does an incoming req see
system.mem_ctrls.rdQLenPdf::31                      0                       # What read queue length does an incoming req see
system.mem_ctrls.wrQLenPdf::0                       1                       # What write queue length does an incoming req see
system.mem_ctrls.wrQLenPdf::1                       1                       # What write queue length does an incoming req see
system.mem_ctrls.wrQLenPdf::2                       1                       # What write queue length does an incoming req see
system.mem_ctrls.wrQLenPdf::3                       1                       # What write queue length does an incoming req see
system.mem_ctrls.wrQLenPdf::4                       1                       # What write queue length does an incoming req see
system.mem_ctrls.wrQLenPdf::5                       1                       # What write queue length does an incoming req see
system.mem_ctrls.wrQLenPdf::6                       1                       # What write queue length does an incoming req see
system.mem_ctrls.wrQLenPdf::7                       1                       # What write queue length does an incoming req see
system.mem_ctrls.wrQLenPdf::8                       1                       # What write queue length does an incoming req see
system.mem_ctrls.wrQLenPdf::9                       1                       # What write queue length does an incoming req see
system.mem_ctrls.wrQLenPdf::10                      1                       # What write queue length does an incoming req see
system.mem_ctrls.wrQLenPdf::11                      1                       # What write queue length does an incoming req see
system.mem_ctrls.wrQLenPdf::12                      1                       # What write queue length does an incoming req see
system.mem_ctrls.wrQLenPdf::13                      1                       # What write queue length does an incoming req see
system.mem_ctrls.wrQLenPdf::14                      1                       # What write queue length does an incoming req see
system.mem_ctrls.wrQLenPdf::15                    682                       # What write queue length does an incoming req see
system.mem_ctrls.wrQLenPdf::16                    698                       # What write queue length does an incoming req see
system.mem_ctrls.wrQLenPdf::17                   1594                       # What write queue length does an incoming req see
system.mem_ctrls.wrQLenPdf::18                   2412                       # What write queue length does an incoming req see
system.mem_ctrls.wrQLenPdf::19                   4221                       # What write queue length does an incoming req see
system.mem_ctrls.wrQLenPdf::20                   5615                       # What write queue length does an incoming req see
system.mem_ctrls.wrQLenPdf::21                   6865                       # What write queue length does an incoming req see
system.mem_ctrls.wrQLenPdf::22                   7571                       # What write queue length does an incoming req see
system.mem_ctrls.wrQLenPdf::23                   9369                       # What write queue length does an incoming req see
system.mem_ctrls.wrQLenPdf::24                  10536                       # What write queue length does an incoming req see
system.mem_ctrls.wrQLenPdf::25                  10878                       # What write queue length does an incoming req see
system.mem_ctrls.wrQLenPdf::26                  11510                       # What write queue length does an incoming req see
system.mem_ctrls.wrQLenPdf::27                  11736                       # What write queue length does an incoming req see
system.mem_ctrls.wrQLenPdf::28                  12761                       # What write queue length does an incoming req see
system.mem_ctrls.wrQLenPdf::29                  12814                       # What write queue length does an incoming req see
system.mem_ctrls.wrQLenPdf::30                  12187                       # What write queue length does an incoming req see
system.mem_ctrls.wrQLenPdf::31                  11754                       # What write queue length does an incoming req see
system.mem_ctrls.wrQLenPdf::32                  10573                       # What write queue length does an incoming req see
system.mem_ctrls.wrQLenPdf::33                   8043                       # What write queue length does an incoming req see
system.mem_ctrls.wrQLenPdf::34                   6525                       # What write queue length does an incoming req see
system.mem_ctrls.wrQLenPdf::35                   2457                       # What write queue length does an incoming req see
system.mem_ctrls.wrQLenPdf::36                     49                       # What write queue length does an incoming req see
system.mem_ctrls.wrQLenPdf::37                     38                       # What write queue length does an incoming req see
system.mem_ctrls.wrQLenPdf::38                     27                       # What write queue length does an incoming req see
system.mem_ctrls.wrQLenPdf::39                     14                       # What write queue length does an incoming req see
system.mem_ctrls.wrQLenPdf::40                      0                       # What write queue length does an incoming req see
system.mem_ctrls.wrQLenPdf::41                      0                       # What write queue length does an incoming req see
system.mem_ctrls.wrQLenPdf::42                      0                       # What write queue length does an incoming req see
system.mem_ctrls.wrQLenPdf::43                      0                       # What write queue length does an incoming req see
system.mem_ctrls.wrQLenPdf::44                      0                       # What write queue length does an incoming req see
system.mem_ctrls.wrQLenPdf::45                      0                       # What write queue length does an incoming req see
system.mem_ctrls.wrQLenPdf::46                      0                       # What write queue length does an incoming req see
system.mem_ctrls.wrQLenPdf::47                      0                       # What write queue length does an incoming req see
system.mem_ctrls.wrQLenPdf::48                      0                       # What write queue length does an incoming req see
system.mem_ctrls.wrQLenPdf::49                      0                       # What write queue length does an incoming req see
system.mem_ctrls.wrQLenPdf::50                      0                       # What write queue length does an incoming req see
system.mem_ctrls.wrQLenPdf::51                      0                       # What write queue length does an incoming req see
system.mem_ctrls.wrQLenPdf::52                      0                       # What write queue length does an incoming req see
system.mem_ctrls.wrQLenPdf::53                      0                       # What write queue length does an incoming req see
system.mem_ctrls.wrQLenPdf::54                      0                       # What write queue length does an incoming req see
system.mem_ctrls.wrQLenPdf::55                      0                       # What write queue length does an incoming req see
system.mem_ctrls.wrQLenPdf::56                      0                       # What write queue length does an incoming req see
system.mem_ctrls.wrQLenPdf::57                      0                       # What write queue length does an incoming req see
system.mem_ctrls.wrQLenPdf::58                      0                       # What write queue length does an incoming req see
system.mem_ctrls.wrQLenPdf::59                      0                       # What write queue length does an incoming req see
system.mem_ctrls.wrQLenPdf::60                      0                       # What write queue length does an incoming req see
system.mem_ctrls.wrQLenPdf::61                      0                       # What write queue length does an incoming req see
system.mem_ctrls.wrQLenPdf::62                      0                       # What write queue length does an incoming req see
system.mem_ctrls.wrQLenPdf::63                      0                       # What write queue length does an incoming req see
system.mem_ctrls.bytesPerActivate::samples        45591                       # Bytes accessed per row activation
system.mem_ctrls.bytesPerActivate::mean    643.446294                       # Bytes accessed per row activation
system.mem_ctrls.bytesPerActivate::gmean   531.690829                       # Bytes accessed per row activation
system.mem_ctrls.bytesPerActivate::stdev   344.925302                       # Bytes accessed per row activation
system.mem_ctrls.bytesPerActivate::0-127          733      1.61%      1.61% # Bytes accessed per row activation
system.mem_ctrls.bytesPerActivate::128-255          850      1.86%      3.47% # Bytes accessed per row activation
system.mem_ctrls.bytesPerActivate::256-383        14766     32.39%     35.86% # Bytes accessed per row activation
system.mem_ctrls.bytesPerActivate::384-511         1091      2.39%     38.25% # Bytes accessed per row activation
system.mem_ctrls.bytesPerActivate::512-639         5397     11.84%     50.09% # Bytes accessed per row activation
system.mem_ctrls.bytesPerActivate::640-767         1048      2.30%     52.39% # Bytes accessed per row activation
system.mem_ctrls.bytesPerActivate::768-895         3471      7.61%     60.00% # Bytes accessed per row activation
system.mem_ctrls.bytesPerActivate::896-1023          514      1.13%     61.13% # Bytes accessed per row activation
system.mem_ctrls.bytesPerActivate::1024-1151        17721     38.87%    100.00% # Bytes accessed per row activation
system.mem_ctrls.bytesPerActivate::total        45591                       # Bytes accessed per row activation
system.mem_ctrls.rdPerTurnAround::samples         9855                       # Reads before turning the bus around for writes
system.mem_ctrls.rdPerTurnAround::mean      30.181228                       # Reads before turning the bus around for writes
system.mem_ctrls.rdPerTurnAround::gmean     21.861430                       # Reads before turning the bus around for writes
system.mem_ctrls.rdPerTurnAround::stdev    177.797076                       # Reads before turning the bus around for writes
system.mem_ctrls.rdPerTurnAround::0-1023         9853     99.98%     99.98% # Reads before turning the bus around for writes
system.mem_ctrls.rdPerTurnAround::1024-2047            1      0.01%     99.99% # Reads before turning the bus around for writes
system.mem_ctrls.rdPerTurnAround::16384-17407            1      0.01%    100.00% # Reads before turning the bus around for writes
system.mem_ctrls.rdPerTurnAround::total          9855                       # Reads before turning the bus around for writes
system.mem_ctrls.wrPerTurnAround::samples         9855                       # Writes before turning the bus around for reads
system.mem_ctrls.wrPerTurnAround::mean      16.329680                       # Writes before turning the bus around for reads
system.mem_ctrls.wrPerTurnAround::gmean     16.295532                       # Writes before turning the bus around for reads
system.mem_ctrls.wrPerTurnAround::stdev      1.130597                       # Writes before turning the bus around for reads
system.mem_ctrls.wrPerTurnAround::16             9061     91.94%     91.94% # Writes before turning the bus around for reads
system.mem_ctrls.wrPerTurnAround::17                3      0.03%     91.97% # Writes before turning the bus around for reads
system.mem_ctrls.wrPerTurnAround::18               17      0.17%     92.15% # Writes before turning the bus around for reads
[...]
system.cpu.icache.ReadReq_avg_miss_latency::total 71905.191874                       # average ReadReq miss latency
system.cpu.icache.ReadReq_mshr_misses::.cpu.inst          443                       # number of ReadReq MSHR misses
system.cpu.icache.ReadReq_mshr_misses::total          443                       # number of ReadReq MSHR misses
system.cpu.icache.ReadReq_mshr_miss_latency::.cpu.inst     31411000                       # number of ReadReq MSHR miss cycles
system.cpu.icache.ReadReq_mshr_miss_latency::total     31411000                       # number of ReadReq MSHR miss cycles
system.cpu.icache.ReadReq_mshr_miss_rate::.cpu.inst     0.000063                       # mshr miss rate for ReadReq accesses
system.cpu.icache.ReadReq_mshr_miss_rate::total     0.000063                       # mshr miss rate for ReadReq accesses
system.cpu.icache.ReadReq_avg_mshr_miss_latency::.cpu.inst 70905.191874                       # average ReadReq mshr miss latency
system.cpu.icache.ReadReq_avg_mshr_miss_latency::total 70905.191874                       # average ReadReq mshr miss latency
system.cpu.icache.tags.pwrStateResidencyTicks::UNDEFINED  80582075000                       # Cumulative time (in ticks) in various power states
system.cpu.icache.tags.tagsinuse           112.561607                       # Cycle average of tags in use
system.cpu.icache.tags.total_refs             7019356                       # Total number of references to valid blocks.
system.cpu.icache.tags.sampled_refs               443                       # Sample count of references to valid blocks.
system.cpu.icache.tags.avg_refs          15845.047404                       # Average number of references to valid blocks.
system.cpu.icache.tags.warmup_cycle            102500                       # Cycle when the warmup percentage was hit.
system.cpu.icache.tags.occ_blocks::.cpu.inst   112.561607                       # Average occupied blocks per requestor
system.cpu.icache.tags.occ_percent::.cpu.inst     0.879388                       # Average percentage of cache occupancy
system.cpu.icache.tags.occ_percent::total     0.879388                       # Average percentage of cache occupancy
system.cpu.icache.tags.occ_task_id_blocks::1024          122                       # Occupied blocks per task id
system.cpu.icache.tags.age_task_id_blocks_1024::3           24                       # Occupied blocks per task id
system.cpu.icache.tags.age_task_id_blocks_1024::4           98                       # Occupied blocks per task id
system.cpu.icache.tags.occ_task_id_percent::1024     0.953125                       # Percentage of cache occupancy per task id
system.cpu.icache.tags.tag_accesses          14039155                       # Number of tag accesses
system.cpu.icache.tags.data_accesses         14039155                       # Number of data accesses
system.cpu.dtb.walker.pwrStateResidencyTicks::UNDEFINED  80582075000                       # Cumulative time (in ticks) in various power states
system.cpu.dtb.stage2_mmu.stage2_tlb.walker.pwrStateResidencyTicks::UNDEFINED  80582075000                       # Cumulative time (in ticks) in various power states
system.cpu.dcache.pwrStateResidencyTicks::UNDEFINED  80582075000                       # Cumulative time (in ticks) in various power states
system.cpu.dcache.demand_hits::.cpu.data     51472918                       # number of demand (read+write) hits
system.cpu.dcache.demand_hits::total         51472918                       # number of demand (read+write) hits
system.cpu.dcache.overall_hits::.cpu.data     51474182                       # number of overall hits
system.cpu.dcache.overall_hits::total        51474182                       # number of overall hits
system.cpu.dcache.demand_misses::.cpu.data       574905                       # number of demand (read+write) misses
system.cpu.dcache.demand_misses::total         574905                       # number of demand (read+write) misses
system.cpu.dcache.overall_misses::.cpu.data       582062                       # number of overall misses
system.cpu.dcache.overall_misses::total        582062                       # number of overall misses
system.cpu.dcache.demand_miss_latency::.cpu.data  16837525000                       # number of demand (read+write) miss cycles
system.cpu.dcache.demand_miss_latency::total  16837525000                       # number of demand (read+write) miss cycles
system.cpu.dcache.overall_miss_latency::.cpu.data  16837525000                       # number of overall miss cycles
system.cpu.dcache.overall_miss_latency::total  16837525000                       # number of overall miss cycles
system.cpu.dcache.demand_accesses::.cpu.data     52047823                       # number of demand (read+write) accesses
system.cpu.dcache.demand_accesses::total     52047823                       # number of demand (read+write) accesses
system.cpu.dcache.overall_accesses::.cpu.data     52056244                       # number of overall (read+write) accesses
system.cpu.dcache.overall_accesses::total     52056244                       # number of overall (read+write) accesses
system.cpu.dcache.demand_miss_rate::.cpu.data     0.011046                       # miss rate for demand accesses
system.cpu.dcache.demand_miss_rate::total     0.011046                       # miss rate for demand accesses
system.cpu.dcache.overall_miss_rate::.cpu.data     0.011181                       # miss rate for overall accesses
system.cpu.dcache.overall_miss_rate::total     0.011181                       # miss rate for overall accesses
system.cpu.dcache.demand_avg_miss_latency::.cpu.data 29287.490977                       # average overall miss latency
system.cpu.dcache.demand_avg_miss_latency::total 29287.490977                       # average overall miss latency
system.cpu.dcache.overall_avg_miss_latency::.cpu.data 28927.373716                       # average overall miss latency
system.cpu.dcache.overall_avg_miss_latency::total 28927.373716                       # average overall miss latency
system.cpu.dcache.blocked_cycles::no_mshrs            0                       # number of cycles access was blocked
system.cpu.dcache.blocked_cycles::no_targets            0                       # number of cycles access was blocked
system.cpu.dcache.blocked::no_mshrs                 0                       # number of cycles access was blocked
system.cpu.dcache.blocked::no_targets               0                       # number of cycles access was blocked
system.cpu.dcache.avg_blocked_cycles::no_mshrs          nan                       # average number of cycles each access was blocked
system.cpu.dcache.avg_blocked_cycles::no_targets          nan                       # average number of cycles each access was blocked
system.cpu.dcache.writebacks::.writebacks       536317                       # number of writebacks
system.cpu.dcache.writebacks::total            536317                       # number of writebacks
system.cpu.dcache.demand_mshr_hits::.cpu.data        18397                       # number of demand (read+write) MSHR hits
system.cpu.dcache.demand_mshr_hits::total        18397                       # number of demand (read+write) MSHR hits
system.cpu.dcache.overall_mshr_hits::.cpu.data        18397                       # number of overall MSHR hits
system.cpu.dcache.overall_mshr_hits::total        18397                       # number of overall MSHR hits
system.cpu.dcache.demand_mshr_misses::.cpu.data       556508                       # number of demand (read+write) MSHR misses
system.cpu.dcache.demand_mshr_misses::total       556508                       # number of demand (read+write) MSHR misses
system.cpu.dcache.overall_mshr_misses::.cpu.data       558488                       # number of overall MSHR misses
system.cpu.dcache.overall_mshr_misses::total       558488                       # number of overall MSHR misses
system.cpu.dcache.demand_mshr_miss_latency::.cpu.data  14677511000                       # number of demand (read+write) MSHR miss cycles
system.cpu.dcache.demand_mshr_miss_latency::total  14677511000                       # number of demand (read+write) MSHR miss cycles
system.cpu.dcache.overall_mshr_miss_latency::.cpu.data  14854958000                       # number of overall MSHR miss cycles
system.cpu.dcache.overall_mshr_miss_latency::total  14854958000                       # number of overall MSHR miss cycles
system.cpu.dcache.demand_mshr_miss_rate::.cpu.data     0.010692                       # mshr miss rate for demand accesses
system.cpu.dcache.demand_mshr_miss_rate::total     0.010692                       # mshr miss rate for demand accesses
system.cpu.dcache.overall_mshr_miss_rate::.cpu.data     0.010729                       # mshr miss rate for overall accesses
system.cpu.dcache.overall_mshr_miss_rate::total     0.010729                       # mshr miss rate for overall accesses
system.cpu.dcache.demand_avg_mshr_miss_latency::.cpu.data 26374.303694                       # average overall mshr miss latency
system.cpu.dcache.demand_avg_mshr_miss_latency::total 26374.303694                       # average overall mshr miss latency
system.cpu.dcache.overall_avg_mshr_miss_latency::.cpu.data 26598.526736                       # average overall mshr miss latency
system.cpu.dcache.overall_avg_mshr_miss_latency::total 26598.526736                       # average overall mshr miss latency
system.cpu.dcache.replacements                 557975                       # number of replacements
system.cpu.dcache.ReadReq_hits::.cpu.data     40797572                       # number of ReadReq hits
system.cpu.dcache.ReadReq_hits::total        40797572                       # number of ReadReq hits
system.cpu.dcache.ReadReq_misses::.cpu.data       300165                       # number of ReadReq misses
system.cpu.dcache.ReadReq_misses::total        300165                       # number of ReadReq misses
system.cpu.dcache.ReadReq_miss_latency::.cpu.data   5708719500                       # number of ReadReq miss cycles
system.cpu.dcache.ReadReq_miss_latency::total   5708719500                       # number of ReadReq miss cycles
system.cpu.dcache.ReadReq_accesses::.cpu.data     41097737                       # number of ReadReq accesses(hits+misses)
system.cpu.dcache.ReadReq_accesses::total     41097737                       # number of ReadReq accesses(hits+misses)
system.cpu.dcache.ReadReq_miss_rate::.cpu.data     0.007304                       # miss rate for ReadReq accesses
system.cpu.dcache.ReadReq_miss_rate::total     0.007304                       # miss rate for ReadReq accesses
system.cpu.dcache.ReadReq_avg_miss_latency::.cpu.data 19018.604767                       # average ReadReq miss latency
system.cpu.dcache.ReadReq_avg_miss_latency::total 19018.604767                       # average ReadReq miss latency
system.cpu.dcache.ReadReq_mshr_hits::.cpu.data         1967                       # number of ReadReq MSHR hits
system.cpu.dcache.ReadReq_mshr_hits::total         1967                       # number of ReadReq MSHR hits
system.cpu.dcache.ReadReq_mshr_misses::.cpu.data       298198                       # number of ReadReq MSHR misses
system.cpu.dcache.ReadReq_mshr_misses::total       298198                       # number of ReadReq MSHR misses
system.cpu.dcache.ReadReq_mshr_miss_latency::.cpu.data   5258497000                       # number of ReadReq MSHR miss cycles
system.cpu.dcache.ReadReq_mshr_miss_latency::total   5258497000                       # number of ReadReq MSHR miss cycles
system.cpu.dcache.ReadReq_mshr_miss_rate::.cpu.data     0.007256                       # mshr miss rate for ReadReq accesses
system.cpu.dcache.ReadReq_mshr_miss_rate::total     0.007256                       # mshr miss rate for ReadReq accesses
system.cpu.dcache.ReadReq_avg_mshr_miss_latency::.cpu.data 17634.246373                       # average ReadReq mshr miss latency
system.cpu.dcache.ReadReq_avg_mshr_miss_latency::total 17634.246373                       # average ReadReq mshr miss latency
system.cpu.dcache.WriteReq_hits::.cpu.data     10675346                       # number of WriteReq hits
system.cpu.dcache.WriteReq_hits::total       10675346                       # number of WriteReq hits
system.cpu.dcache.WriteReq_misses::.cpu.data       274740                       # number of WriteReq misses
system.cpu.dcache.WriteReq_misses::total       274740                       # number of WriteReq misses
system.cpu.dcache.WriteReq_miss_latency::.cpu.data  11128805500                       # number of WriteReq miss cycles
system.cpu.dcache.WriteReq_miss_latency::total  11128805500                       # number of WriteReq miss cycles
system.cpu.dcache.WriteReq_accesses::.cpu.data     10950086                       # number of WriteReq accesses(hits+misses)
system.cpu.dcache.WriteReq_accesses::total     10950086                       # number of WriteReq accesses(hits+misses)
system.cpu.dcache.WriteReq_miss_rate::.cpu.data     0.025090                       # miss rate for WriteReq accesses
system.cpu.dcache.WriteReq_miss_rate::total     0.025090                       # miss rate for WriteReq accesses
system.cpu.dcache.WriteReq_avg_miss_latency::.cpu.data 40506.680862                       # average WriteReq miss latency
system.cpu.dcache.WriteReq_avg_miss_latency::total 40506.680862                       # average WriteReq miss latency
system.cpu.dcache.WriteReq_mshr_hits::.cpu.data        16430                       # number of WriteReq MSHR hits
system.cpu.dcache.WriteReq_mshr_hits::total        16430                       # number of WriteReq MSHR hits
system.cpu.dcache.WriteReq_mshr_misses::.cpu.data       258310                       # number of WriteReq MSHR misses
system.cpu.dcache.WriteReq_mshr_misses::total       258310                       # number of WriteReq MSHR misses
system.cpu.dcache.WriteReq_mshr_miss_latency::.cpu.data   9419014000                       # number of WriteReq MSHR miss cycles
system.cpu.dcache.WriteReq_mshr_miss_latency::total   9419014000                       # number of WriteReq MSHR miss cycles
system.cpu.dcache.WriteReq_mshr_miss_rate::.cpu.data     0.023590                       # mshr miss rate for WriteReq accesses
system.cpu.dcache.WriteReq_mshr_miss_rate::total     0.023590                       # mshr miss rate for WriteReq accesses
system.cpu.dcache.WriteReq_avg_mshr_miss_latency::.cpu.data 36463.992877                       # average WriteReq mshr miss latency
system.cpu.dcache.WriteReq_avg_mshr_miss_latency::total 36463.992877                       # average WriteReq mshr miss latency
system.cpu.dcache.SoftPFReq_hits::.cpu.data         1264                       # number of SoftPFReq hits
system.cpu.dcache.SoftPFReq_hits::total          1264                       # number of SoftPFReq hits
system.cpu.dcache.SoftPFReq_misses::.cpu.data         7157                       # number of SoftPFReq misses
system.cpu.dcache.SoftPFReq_misses::total         7157                       # number of SoftPFReq misses
system.cpu.dcache.SoftPFReq_accesses::.cpu.data         8421                       # number of SoftPFReq accesses(hits+misses)
system.cpu.dcache.SoftPFReq_accesses::total         8421                       # number of SoftPFReq accesses(hits+misses)
system.cpu.dcache.SoftPFReq_miss_rate::.cpu.data     0.849899                       # miss rate for SoftPFReq accesses
system.cpu.dcache.SoftPFReq_miss_rate::total     0.849899                       # miss rate for SoftPFReq accesses
system.cpu.dcache.SoftPFReq_mshr_misses::.cpu.data         1980                       # number of SoftPFReq MSHR misses
system.cpu.dcache.SoftPFReq_mshr_misses::total         1980                       # number of SoftPFReq MSHR misses
system.cpu.dcache.SoftPFReq_mshr_miss_latency::.cpu.data    177447000                       # number of SoftPFReq MSHR miss cycles
system.cpu.dcache.SoftPFReq_mshr_miss_latency::total    177447000                       # number of SoftPFReq MSHR miss cycles
system.cpu.dcache.SoftPFReq_mshr_miss_rate::.cpu.data     0.235126                       # mshr miss rate for SoftPFReq accesses
system.cpu.dcache.SoftPFReq_mshr_miss_rate::total     0.235126                       # mshr miss rate for SoftPFReq accesses
system.cpu.dcache.SoftPFReq_avg_mshr_miss_latency::.cpu.data 89619.696970                       # average SoftPFReq mshr miss latency
system.cpu.dcache.SoftPFReq_avg_mshr_miss_latency::total 89619.696970                       # average SoftPFReq mshr miss latency
system.cpu.dcache.LoadLockedReq_hits::.cpu.data           38                       # number of LoadLockedReq hits
system.cpu.dcache.LoadLockedReq_hits::total           38                       # number of LoadLockedReq hits
system.cpu.dcache.LoadLockedReq_accesses::.cpu.data           38                       # number of LoadLockedReq accesses(hits+misses)
system.cpu.dcache.LoadLockedReq_accesses::total           38                       # number of LoadLockedReq accesses(hits+misses)
system.cpu.dcache.StoreCondReq_hits::.cpu.data           38                       # number of StoreCondReq hits
system.cpu.dcache.StoreCondReq_hits::total           38                       # number of StoreCondReq hits
system.cpu.dcache.StoreCondReq_accesses::.cpu.data           38                       # number of StoreCondReq accesses(hits+misses)
system.cpu.dcache.StoreCondReq_accesses::total           38                       # number of StoreCondReq accesses(hits+misses)
system.cpu.dcache.tags.pwrStateResidencyTicks::UNDEFINED  80582075000                       # Cumulative time (in ticks) in various power states
system.cpu.dcache.tags.tagsinuse           501.868883                       # Cycle average of tags in use
system.cpu.dcache.tags.total_refs            52032745                       # Total number of references to valid blocks.
system.cpu.dcache.tags.sampled_refs            558487                       # Sample count of references to valid blocks.
system.cpu.dcache.tags.avg_refs             93.167334                       # Average number of references to valid blocks.
system.cpu.dcache.tags.warmup_cycle            210500                       # Cycle when the warmup percentage was hit.
system.cpu.dcache.tags.occ_blocks::.cpu.data   501.868883                       # Average occupied blocks per requestor
system.cpu.dcache.tags.occ_percent::.cpu.data     0.980213                       # Average percentage of cache occupancy
system.cpu.dcache.tags.occ_percent::total     0.980213                       # Average percentage of cache occupancy
system.cpu.dcache.tags.occ_task_id_blocks::1024          512                       # Occupied blocks per task id
system.cpu.dcache.tags.age_task_id_blocks_1024::0          261                       # Occupied blocks per task id
system.cpu.dcache.tags.age_task_id_blocks_1024::1          219                       # Occupied blocks per task id
system.cpu.dcache.tags.age_task_id_blocks_1024::2           31                       # Occupied blocks per task id
system.cpu.dcache.tags.age_task_id_blocks_1024::3            1                       # Occupied blocks per task id
system.cpu.dcache.tags.occ_task_id_percent::1024            1                       # Percentage of cache occupancy per task id
system.cpu.dcache.tags.tag_accesses         104671127                       # Number of tag accesses
system.cpu.dcache.tags.data_accesses        104671127                       # Number of data accesses
system.cpu.itb.walker.pwrStateResidencyTicks::UNDEFINED  80582075000                       # Cumulative time (in ticks) in various power states
system.cpu.itb.stage2_mmu.stage2_tlb.walker.pwrStateResidencyTicks::UNDEFINED  80582075000                       # Cumulative time (in ticks) in various power states

---------- End Simulation Statistics   ----------
