
---------- Begin Simulation Statistics ----------
final_tick                                82444607500                       # Number of ticks from beginning of simulation (restored from checkpoints and never reset)
host_inst_rate                                 456475                       # Simulator instruction rate (inst/s)
host_mem_usage                                 681244                       # Number of bytes of host memory used
host_op_rate                                   457371                       # Simulator op (including micro ops) rate (op/s)
host_seconds                                   219.07                       # Real time elapsed on the host
host_tick_rate                              376339069                       # Simulator tick rate (ticks/s)
sim_freq                                 1000000000000                       # Frequency of simulated ticks
sim_insts                                   100000001                       # Number of instructions simulated
sim_ops                                     100196363                       # Number of ops (including micro ops) simulated
sim_seconds                                  0.082445                       # Number of seconds simulated
sim_ticks                                 82444607500                       # Number of ticks simulated
system.cpu.branchPred.BTBCorrect                    0                       # Number of correct BTB predictions (this stat may not work properly.
system.cpu.branchPred.BTBHitPct             99.615655                       # BTB Hit Percentage
system.cpu.branchPred.BTBHits                 2096271                       # Number of BTB hits
system.cpu.branchPred.BTBLookups              2104359                       # Number of BTB lookups
system.cpu.branchPred.RASInCorrect                  5                       # Number of incorrect RAS predictions.
system.cpu.branchPred.condIncorrect             81379                       # Number of conditional branches incorrect
system.cpu.branchPred.condPredicted           3728781                       # Number of conditional branches predicted
system.cpu.branchPred.indirectHits                301                       # Number of indirect target hits.
system.cpu.branchPred.indirectLookups            1022                       # Number of indirect predictor lookups.
system.cpu.branchPred.indirectMisses              721                       # Number of indirect misses.
system.cpu.branchPred.lookups                 4479200                       # Number of BP lookups
system.cpu.branchPred.usedRAS                   65361                       # Number of times the RAS was used to get a target.
system.cpu.branchPredindirectMispredicted          163                       # Number of mispredicted indirect branches.
system.cpu.committedInsts                   100000001                       # Number of instructions committed
system.cpu.committedOps                     100196363                       # Number of ops (including micro ops) committed
system.cpu.cpi                               1.648892                       # CPI: cycles per instruction
system.cpu.discardedOps                        190819                       # Number of ops (including micro ops) which were discarded before commit
system.cpu.dtb.accesses                             0                       # DTB accesses
system.cpu.dtb.align_faults                         0                       # Number of TLB faults due to alignment restrictions
system.cpu.dtb.domain_faults                        0                       # Number of TLB faults due to domain restrictions
system.cpu.dtb.flush_entries                        0                       # Number of entries that have been flushed from TLB
system.cpu.dtb.flush_tlb                            0                       # Number of times complete TLB was flushed
system.cpu.dtb.flush_tlb_asid                       0                       # Number of times TLB was flushed by ASID
system.cpu.dtb.flush_tlb_mva                        0                       # Number of times TLB was flushed by MVA
system.cpu.dtb.flush_tlb_mva_asid                   0                       # Number of times TLB was flushed by MVA & ASID
system.cpu.dtb.hits                                 0                       # DTB hits
system.cpu.dtb.inst_accesses                        0                       # ITB inst accesses
system.cpu.dtb.inst_hits                            0                       # ITB inst hits
system.cpu.dtb.inst_misses                          0                       # ITB inst misses
system.cpu.dtb.misses                               0                       # DTB misses
system.cpu.dtb.perms_faults                         0                       # Number of TLB faults due to permissions restrictions
system.cpu.dtb.prefetch_faults                      0                       # Number of TLB faults due to prefetch
system.cpu.dtb.read_accesses                        0                       # DTB read accesses
system.cpu.dtb.read_hits                            0                       # DTB read hits
system.cpu.dtb.read_misses                          0                       # DTB read misses
system.cpu.dtb.stage2_mmu.stage2_tlb.accesses            0                       # DTB accesses
system.cpu.dtb.stage2_mmu.stage2_tlb.align_faults            0                       # Number of TLB faults due to alignment restrictions
system.cpu.dtb.stage2_mmu.stage2_tlb.domain_faults            0                       # Number of TLB faults due to domain restrictions
system.cpu.dtb.stage2_mmu.stage2_tlb.flush_entries            0                       # Number of entries that have been flushed from TLB
system.cpu.dtb.stage2_mmu.stage2_tlb.flush_tlb            0                       # Number of times complete TLB was flushed
system.cpu.dtb.stage2_mmu.stage2_tlb.flush_tlb_asid            0                       # Number of times TLB was flushed by ASID
system.cpu.dtb.stage2_mmu.stage2_tlb.flush_tlb_mva            0                       # Number of times TLB was flushed by MVA
system.cpu.dtb.stage2_mmu.stage2_tlb.flush_tlb_mva_asid            0                       # Number of times TLB was flushed by MVA & ASID
system.cpu.dtb.stage2_mmu.stage2_tlb.hits            0                       # DTB hits
system.cpu.dtb.stage2_mmu.stage2_tlb.inst_accesses            0                       # ITB inst accesses
system.cpu.dtb.stage2_mmu.stage2_tlb.inst_hits            0                       # ITB inst hits
system.cpu.dtb.stage2_mmu.stage2_tlb.inst_misses            0                       # ITB inst misses
system.cpu.dtb.stage2_mmu.stage2_tlb.misses            0                       # DTB misses
system.cpu.dtb.stage2_mmu.stage2_tlb.perms_faults            0                       # Number of TLB faults due to permissions restrictions
system.cpu.dtb.stage2_mmu.stage2_tlb.prefetch_faults            0                       # Number of TLB faults due to prefetch
system.cpu.dtb.stage2_mmu.stage2_tlb.read_accesses            0                       # DTB read accesses
system.cpu.dtb.stage2_mmu.stage2_tlb.read_hits            0                       # DTB read hits
system.cpu.dtb.stage2_mmu.stage2_tlb.read_misses            0                       # DTB read misses
system.cpu.dtb.stage2_mmu.stage2_tlb.walker.walkRequestOrigin_Requested::Data            0                       # Table walker requests started/completed, data/inst
system.cpu.dtb.stage2_mmu.stage2_tlb.walker.walkRequestOrigin_Requested::Inst            0                       # Table walker requests started/completed, data/inst
system.cpu.dtb.stage2_mmu.stage2_tlb.walker.walkRequestOrigin_Requested::total            0                       # Table walker requests started/completed, data/inst
system.cpu.dtb.stage2_mmu.stage2_tlb.walker.walkRequestOrigin_Completed::Data            0                       # Table walker requests started/completed, data/inst
system.cpu.dtb.stage2_mmu.stage2_tlb.walker.walkRequestOrigin_Completed::Inst            0                       # Table walker requests started/completed, data/inst
system.cpu.dtb.stage2_mmu.stage2_tlb.walker.walkRequestOrigin_Completed::total            0                       # Table walker requests started/completed, data/inst
system.cpu.dtb.stage2_mmu.stage2_tlb.walker.walkRequestOrigin::total            0                       # Table walker requests started/completed, data/inst
system.cpu.dtb.stage2_mmu.stage2_tlb.walker.walks            0                       # Table walker walks requested
system.cpu.dtb.stage2_mmu.stage2_tlb.write_accesses            0                       # DTB write accesses
system.cpu.dtb.stage2_mmu.stage2_tlb.write_hits            0                       # DTB write hits
system.cpu.dtb.stage2_mmu.stage2_tlb.write_misses            0                       # DTB write misses
system.cpu.dtb.walker.walkRequestOrigin_Requested::Data            0                       # Table walker requests started/completed, data/inst
system.cpu.dtb.walker.walkRequestOrigin_Requested::Inst            0                       # Table walker requests started/completed, data/inst
system.cpu.dtb.walker.walkRequestOrigin_Requested::total            0                       # Table walker requests started/completed, data/inst
system.cpu.dtb.walker.walkRequestOrigin_Completed::Data            0                       # Table walker requests started/completed, data/inst
system.cpu.dtb.walker.walkRequestOrigin_Completed::Inst            0                       # Table walker requests started/completed, data/inst
system.cpu.dtb.walker.walkRequestOrigin_Completed::total            0                       # Table walker requests started/completed, data/inst
system.cpu.dtb.walker.walkRequestOrigin::total            0                       # Table walker requests started/completed, data/inst
system.cpu.dtb.walker.walks                         0                       # Table walker walks requested
system.cpu.dtb.write_accesses                       0                       # DTB write accesses
system.cpu.dtb.write_hits                           0                       # DTB write hits
system.cpu.dtb.write_misses                         0                       # DTB write misses
system.cpu.fetch2.amo_instructions                  0                       # Number of memory atomic instructions successfully decoded
system.cpu.fetch2.fp_instructions                   0                       # Number of floating point instructions successfully decoded
system.cpu.fetch2.int_instructions           42615267                       # Number of integer instructions successfully decoded
system.cpu.fetch2.load_instructions          43408381                       # Number of memory load instructions successfully decoded
system.cpu.fetch2.store_instructions         11002289                       # Number of memory store instructions successfully decoded
system.cpu.fetch2.vec_instructions                  0                       # Number of SIMD instructions successfully decoded
system.cpu.idleCycles                        32410471                       # Total number of cycles that the object has spent stopped
system.cpu.ipc                               0.606468                       # IPC: instructions per cycle
system.cpu.itb.accesses                             0                       # DTB accesses
system.cpu.itb.align_faults                         0                       # Number of TLB faults due to alignment restrictions
system.cpu.itb.domain_faults                        0                       # Number of TLB faults due to domain restrictions
system.cpu.itb.flush_entries                        0                       # Number of entries that have been flushed from TLB
system.cpu.itb.flush_tlb                            0                       # Number of times complete TLB was flushed
system.cpu.itb.flush_tlb_asid                       0                       # Number of times TLB was flushed by ASID
system.cpu.itb.flush_tlb_mva                        0                       # Number of times TLB was flushed by MVA
system.cpu.itb.flush_tlb_mva_asid                   0                       # Number of times TLB was flushed by MVA & ASID
system.cpu.itb.hits                                 0                       # DTB hits
system.cpu.itb.inst_accesses                        0                       # ITB inst accesses
system.cpu.itb.inst_hits                            0                       # ITB inst hits
system.cpu.itb.inst_misses                          0                       # ITB inst misses
system.cpu.itb.misses                               0                       # DTB misses
system.cpu.itb.perms_faults                         0                       # Number of TLB faults due to permissions restrictions
system.cpu.itb.prefetch_faults                      0                       # Number of TLB faults due to prefetch
system.cpu.itb.read_accesses                        0                       # DTB read accesses
system.cpu.itb.read_hits                            0                       # DTB read hits
system.cpu.itb.read_misses                          0                       # DTB read misses
system.cpu.itb.stage2_mmu.stage2_tlb.accesses            0                       # DTB accesses
system.cpu.itb.stage2_mmu.stage2_tlb.align_faults            0                       # Number of TLB faults due to alignment restrictions
system.cpu.itb.stage2_mmu.stage2_tlb.domain_faults            0                       # Number of TLB faults due to domain restrictions
system.cpu.itb.stage2_mmu.stage2_tlb.flush_entries            0                       # Number of entries that have been flushed from TLB
system.cpu.itb.stage2_mmu.stage2_tlb.flush_tlb            0                       # Number of times complete TLB was flushed
system.cpu.itb.stage2_mmu.stage2_tlb.flush_tlb_asid            0                       # Number of times TLB was flushed by ASID
system.cpu.itb.stage2_mmu.stage2_tlb.flush_tlb_mva            0                       # Number of times TLB was flushed by MVA
system.cpu.itb.stage2_mmu.stage2_tlb.flush_tlb_mva_asid            0                       # Number of times TLB was flushed by MVA & ASID
system.cpu.itb.stage2_mmu.stage2_tlb.hits            0                       # DTB hits
system.cpu.itb.stage2_mmu.stage2_tlb.inst_accesses            0                       # ITB inst accesses
system.cpu.itb.stage2_mmu.stage2_tlb.inst_hits            0                       # ITB inst hits
system.cpu.itb.stage2_mmu.stage2_tlb.inst_misses            0                       # ITB inst misses
system.cpu.itb.stage2_mmu.stage2_tlb.misses            0                       # DTB misses
system.cpu.itb.stage2_mmu.stage2_tlb.perms_faults            0                       # Number of TLB faults due to permissions restrictions
system.cpu.itb.stage2_mmu.stage2_tlb.prefetch_faults            0                       # Number of TLB faults due to prefetch
system.cpu.itb.stage2_mmu.stage2_tlb.read_accesses            0                       # DTB read accesses
system.cpu.itb.stage2_mmu.stage2_tlb.read_hits            0                       # DTB read hits
system.cpu.itb.stage2_mmu.stage2_tlb.read_misses            0                       # DTB read misses
system.cpu.itb.stage2_mmu.stage2_tlb.walker.walkRequestOrigin_Requested::Data            0                       # Table walker requests started/completed, data/inst
system.cpu.itb.stage2_mmu.stage2_tlb.walker.walkRequestOrigin_Requested::Inst            0                       # Table walker requests started/completed, data/inst
system.cpu.itb.stage2_mmu.stage2_tlb.walker.walkRequestOrigin_Requested::total            0                       # Table walker requests started/completed, data/inst
system.cpu.itb.stage2_mmu.stage2_tlb.walker.walkRequestOrigin_Completed::Data            0                       # Table walker requests started/completed, data/inst
system.cpu.itb.stage2_mmu.stage2_tlb.walker.walkRequestOrigin_Completed::Inst            0                       # Table walker requests started/completed, data/inst
system.cpu.itb.stage2_mmu.stage2_tlb.walker.walkRequestOrigin_Completed::total            0                       # Table walker requests started/completed, data/inst
system.cpu.itb.stage2_mmu.stage2_tlb.walker.walkRequestOrigin::total            0                       # Table walker requests started/completed, data/inst
system.cpu.itb.stage2_mmu.stage2_tlb.walker.walks            0                       # Table walker walks requested
system.cpu.itb.stage2_mmu.stage2_tlb.write_accesses            0                       # DTB write accesses
system.cpu.itb.stage2_mmu.stage2_tlb.write_hits            0                       # DTB write hits
system.cpu.itb.stage2_mmu.stage2_tlb.write_misses            0                       # DTB write misses
system.cpu.itb.walker.walkRequestOrigin_Requested::Data            0                       # Table walker requests started/completed, data/inst
system.cpu.itb.walker.walkRequestOrigin_Requested::Inst            0                       # Table walker requests started/completed, data/inst
system.cpu.itb.walker.walkRequestOrigin_Requested::total            0                       # Table walker requests started/completed, data/inst
system.cpu.itb.walker.walkRequestOrigin_Completed::Data            0                       # Table walker requests started/completed, data/inst
system.cpu.itb.walker.walkRequestOrigin_Completed::Inst            0                       # Table walker requests started/completed, data/inst
system.cpu.itb.walker.walkRequestOrigin_Completed::total            0                       # Table walker requests started/completed, data/inst
system.cpu.itb.walker.walkRequestOrigin::total            0                       # Table walker requests started/completed, data/inst
system.cpu.itb.walker.walks                         0                       # Table walker walks requested
system.cpu.itb.write_accesses                       0                       # DTB write accesses
system.cpu.itb.write_hits                           0                       # DTB write hits
system.cpu.itb.write_misses                         0                       # DTB write misses
system.cpu.numCycles                        164889215                       # number of cpu cycles simulated
system.cpu.numFetchSuspends                         0                       # Number of times Execute suspended instruction fetching
system.cpu.numWorkItemsCompleted                    0                       # number of work items this cpu completed
system.cpu.numWorkItemsStarted                      0                       # number of work items this cpu started
system.cpu.op_class_0::No_OpClass                   0      0.00%      0.00% # Class of committed instruction
system.cpu.op_class_0::IntAlu                46531400     46.44%     46.44% # Class of committed instruction
system.cpu.op_class_0::IntMult                  20720      0.02%     46.46% # Class of committed instruction
system.cpu.op_class_0::IntDiv                       0      0.00%     46.46% # Class of committed instruction
system.cpu.op_class_0::FloatAdd                     0      0.00%     46.46% # Class of committed instruction
system.cpu.op_class_0::FloatCmp                     0      0.00%     46.46% # Class of committed instruction
system.cpu.op_class_0::FloatCvt                     0      0.00%     46.46% # Class of committed instruction
system.cpu.op_class_0::FloatMult                    0      0.00%     46.46% # Class of committed instruction
system.cpu.op_class_0::FloatMultAcc                 0      0.00%     46.46% # Class of committed instruction
system.cpu.op_class_0::FloatDiv                     0      0.00%     46.46% # Class of committed instruction
system.cpu.op_class_0::FloatMisc                    0      0.00%     46.46% # Class of committed instruction
system.cpu.op_class_0::FloatSqrt                    0      0.00%     46.46% # Class of committed instruction
system.cpu.op_class_0::SimdAdd                      0      0.00%     46.46% # Class of committed instruction
system.cpu.op_class_0::SimdAddAcc                   0      0.00%     46.46% # Class of committed instruction
system.cpu.op_class_0::SimdAlu                      0      0.00%     46.46% # Class of committed instruction
system.cpu.op_class_0::SimdCmp                      0      0.00%     46.46% # Class of committed instruction
system.cpu.op_class_0::SimdCvt                      0      0.00%     46.46% # Class of committed instruction
system.cpu.op_class_0::SimdMisc                     0      0.00%     46.46% # Class of committed instruction
system.cpu.op_class_0::SimdMult                     0      0.00%     46.46% # Class of committed instruction
system.cpu.op_class_0::SimdMultAcc                  0      0.00%     46.46% # Class of committed instruction
system.cpu.op_class_0::SimdShift                    0      0.00%     46.46% # Class of committed instruction
system.cpu.op_class_0::SimdShiftAcc                 0      0.00%     46.46% # Class of committed instruction
system.cpu.op_class_0::SimdDiv                      0      0.00%     46.46% # Class of committed instruction
system.cpu.op_class_0::SimdSqrt                     0      0.00%     46.46% # Class of committed instruction
system.cpu.op_class_0::SimdFloatAdd                 0      0.00%     46.46% # Class of committed instruction
system.cpu.op_class_0::SimdFloatAlu                 0      0.00%     46.46% # Class of committed instruction
system.cpu.op_class_0::SimdFloatCmp                 0      0.00%     46.46% # Class of committed instruction
system.cpu.op_class_0::SimdFloatCvt                 0      0.00%     46.46% # Class of committed instruction
system.cpu.op_class_0::SimdFloatDiv                 0      0.00%     46.46% # Class of committed instruction
system.cpu.op_class_0::SimdFloatMisc               18      0.00%     46.46% # Class of committed instruction
system.cpu.op_class_0::SimdFloatMult                0      0.00%     46.46% # Class of committed instruction
system.cpu.op_class_0::SimdFloatMultAcc             0      0.00%     46.46% # Class of committed instruction
system.cpu.op_class_0::SimdFloatSqrt                0      0.00%     46.46% # Class of committed instruction
system.cpu.op_class_0::SimdReduceAdd                0      0.00%     46.46% # Class of committed instruction
system.cpu.op_class_0::SimdReduceAlu                0      0.00%     46.46% # Class of committed instruction
system.cpu.op_class_0::SimdReduceCmp                0      0.00%     46.46% # Class of committed instruction
system.cpu.op_class_0::SimdFloatReduceAdd            0      0.00%     46.46% # Class of committed instruction
system.cpu.op_class_0::SimdFloatReduceCmp            0      0.00%     46.46% # Class of committed instruction
system.cpu.op_class_0::SimdAes                      0      0.00%     46.46% # Class of committed instruction
system.cpu.op_class_0::SimdAesMix                   0      0.00%     46.46% # Class of committed instruction
system.cpu.op_class_0::SimdSha1Hash                 0      0.00%     46.46% # Class of committed instruction
system.cpu.op_class_0::SimdSha1Hash2                0      0.00%     46.46% # Class of committed instruction
system.cpu.op_class_0::SimdSha256Hash               0      0.00%     46.46% # Class of committed instruction
system.cpu.op_class_0::SimdSha256Hash2              0      0.00%     46.46% # Class of committed instruction
system.cpu.op_class_0::SimdShaSigma2                0      0.00%     46.46% # Class of committed instruction
system.cpu.op_class_0::SimdShaSigma3                0      0.00%     46.46% # Class of committed instruction
system.cpu.op_class_0::SimdPredAlu                  0      0.00%     46.46% # Class of committed instruction
system.cpu.op_class_0::MemRead               42693601     42.61%     89.07% # Class of committed instruction
system.cpu.op_class_0::MemWrite              10950624     10.93%    100.00% # Class of committed instruction
system.cpu.op_class_0::FloatMemRead                 0      0.00%    100.00% # Class of committed instruction
system.cpu.op_class_0::FloatMemWrite                0      0.00%    100.00% # Class of committed instruction
system.cpu.op_class_0::IprAccess                    0      0.00%    100.00% # Class of committed instruction
system.cpu.op_class_0::InstPrefetch                 0      0.00%    100.00% # Class of committed instruction
system.cpu.op_class_0::total                100196363                       # Class of committed instruction
system.cpu.tickCycles                       132478744                       # Number of cycles that the object actually ticked
system.cpu.workload.numSyscalls                    84                       # Number of system calls
system.membus.snoop_filter.hit_multi_requests            0                       # Number of requests hitting in the snoop filter with multiple (>1) holders of the requested data.
system.membus.snoop_filter.hit_multi_snoops            0                       # Number of snoops hitting in the snoop filter with multiple (>1) holders of the requested data.
system.membus.snoop_filter.hit_single_requests        57796                       # Number of requests hitting in the snoop filter with a single holder of the requested data.
system.membus.snoop_filter.hit_single_snoops            0                       # Number of snoops hitting in the snoop filter with a single holder of the requested data.
system.membus.snoop_filter.tot_requests        132125                       # Total number of requests made to the snoop filter.
system.membus.snoop_filter.tot_snoops               0                       # Total number of snoops made to the snoop filter.
system.tol2bus.snoop_filter.hit_multi_requests          292                       # Number of requests hitting in the snoop filter with multiple (>1) holders of the requested data.
system.tol2bus.snoop_filter.hit_multi_snoops            1                       # Number of snoops hitting in the snoop filter with multiple (>1) holders of the requested data.
system.tol2bus.snoop_filter.hit_single_requests       769334                       # Number of requests hitting in the snoop filter with a single holder of the requested data.
system.tol2bus.snoop_filter.hit_single_snoops          216                       # Number of snoops hitting in the snoop filter with a single holder of the requested data.
system.tol2bus.snoop_filter.tot_requests      1539120                       # Total number of requests made to the snoop filter.
system.tol2bus.snoop_filter.tot_snoops            217                       # Total number of snoops made to the snoop filter.
system.membus.pwrStateResidencyTicks::UNDEFINED  82444607500                       # Cumulative time (in ticks) in various power states
system.membus.trans_dist::ReadResp              19351                       # Transaction distribution
system.membus.trans_dist::WritebackDirty        40231                       # Transaction distribution
system.membus.trans_dist::CleanEvict            17556                       # Transaction distribution
system.membus.trans_dist::ReadExReq             54987                       # Transaction distribution
system.membus.trans_dist::ReadExResp            54987                       # Transaction distribution
system.membus.trans_dist::ReadSharedReq         19351                       # Transaction distribution
system.membus.pkt_count_system.l2.mem_side::system.mem_ctrls.port       206463                       # Packet count per connected master and slave (bytes)
system.membus.pkt_count::total                 206463                       # Packet count per connected master and slave (bytes)
system.membus.pkt_size_system.l2.mem_side::system.mem_ctrls.port     29329664                       # Cumulative packet size per connected master and slave (bytes)
system.membus.pkt_size::total                29329664                       # Cumulative packet size per connected master and slave (bytes)
system.membus.snoops                                0                       # Total snoops (count)
system.membus.snoopTraffic                          0                       # Total snoop traffic (bytes)
system.membus.snoop_fanout::samples             74338                       # Request fanout histogram
system.membus.snoop_fanout::mean                    0                       # Request fanout histogram
system.membus.snoop_fanout::stdev                   0                       # Request fanout histogram
system.membus.snoop_fanout::underflows              0      0.00%      0.00% # Request fanout histogram
system.membus.snoop_fanout::0                   74338    100.00%    100.00% # Request fanout histogram
system.membus.snoop_fanout::1                       0      0.00%    100.00% # Request fanout histogram
system.membus.snoop_fanout::overflows               0      0.00%    100.00% # Request fanout histogram
system.membus.snoop_fanout::min_value               0                       # Request fanout histogram
system.membus.snoop_fanout::max_value               0                       # Request fanout histogram
system.membus.snoop_fanout::total               74338                       # Request fanout histogram
system.membus.respLayer1.occupancy         1292295000                       # Layer occupancy (ticks)
system.membus.respLayer1.utilization              1.6                       # Layer utilization (%)
system.membus.reqLayer0.occupancy           797760000                       # Layer occupancy (ticks)
system.membus.reqLayer0.utilization               1.0                       # Layer utilization (%)
system.tol2bus.pwrStateResidencyTicks::UNDEFINED  82444607500                       # Cumulative time (in ticks) in various power states
system.tol2bus.trans_dist::ReadResp            443194                       # Transaction distribution
system.tol2bus.trans_dist::WritebackDirty       787570                       # Transaction distribution
system.tol2bus.trans_dist::WritebackClean          123                       # Transaction distribution
system.tol2bus.trans_dist::CleanEvict           39645                       # Transaction distribution
system.tol2bus.trans_dist::ReadExReq           326592                       # Transaction distribution
system.tol2bus.trans_dist::ReadExResp          326591                       # Transaction distribution
system.tol2bus.trans_dist::ReadCleanReq           318                       # Transaction distribution
system.tol2bus.trans_dist::ReadSharedReq       442876                       # Transaction distribution
system.tol2bus.pkt_count_system.cpu.icache.mem_side::system.l2.cpu_side          759                       # Packet count per connected master and slave (bytes)
system.tol2bus.pkt_count_system.cpu.dcache.mem_side::system.l2.cpu_side      2308146                       # Packet count per connected master and slave (bytes)
system.tol2bus.pkt_count::total               2308905                       # Packet count per connected master and slave (bytes)
system.tol2bus.pkt_size_system.cpu.icache.mem_side::system.l2.cpu_side       112896                       # Cumulative packet size per connected master and slave (bytes)
system.tol2bus.pkt_size_system.cpu.dcache.mem_side::system.l2.cpu_side    388302336                       # Cumulative packet size per connected master and slave (bytes)
system.tol2bus.pkt_size::total              388415232                       # Cumulative packet size per connected master and slave (bytes)
system.tol2bus.snoops                           58004                       # Total snoops (count)
system.tol2bus.snoopTraffic                  10299136                       # Total snoop traffic (bytes)
system.tol2bus.snoop_fanout::samples           827790                       # Request fanout histogram
system.tol2bus.snoop_fanout::mean            0.000616                       # Request fanout histogram
system.tol2bus.snoop_fanout::stdev           0.024862                       # Request fanout histogram
system.tol2bus.snoop_fanout::underflows             0      0.00%      0.00% # Request fanout histogram
system.tol2bus.snoop_fanout::0                 827281     99.94%     99.94% # Request fanout histogram
system.tol2bus.snoop_fanout::1                    508      0.06%    100.00% # Request fanout histogram
system.tol2bus.snoop_fanout::2                      1      0.00%    100.00% # Request fanout histogram
system.tol2bus.snoop_fanout::overflows              0      0.00%    100.00% # Request fanout histogram
system.tol2bus.snoop_fanout::min_value              0                       # Request fanout histogram
system.tol2bus.snoop_fanout::max_value              2                       # Request fanout histogram
system.tol2bus.snoop_fanout::total             827790                       # Request fanout histogram
system.tol2bus.reqLayer0.occupancy         3759408000                       # Layer occupancy (ticks)
system.tol2bus.reqLayer0.utilization              4.6                       # Layer utilization (%)
system.tol2bus.respLayer1.occupancy        3462603995                       # Layer occupancy (ticks)
system.tol2bus.respLayer1.utilization             4.2                       # Layer utilization (%)
system.tol2bus.respLayer0.occupancy           1431000                       # Layer occupancy (ticks)
system.tol2bus.respLayer0.utilization             0.0                       # Layer utilization (%)
system.voltage_domain.voltage                       1                       # Voltage in Volts
system.clk_domain.clock                          1000                       # Clock period in ticks
system.l2.pwrStateResidencyTicks::UNDEFINED  82444607500                       # Cumulative time (in ticks) in various power states
system.l2.demand_hits::.cpu.inst                   50                       # number of demand (read+write) hits
system.l2.demand_hits::.cpu.data               695393                       # number of demand (read+write) hits
system.l2.demand_hits::total                   695443                       # number of demand (read+write) hits
system.l2.overall_hits::.cpu.inst                  50                       # number of overall hits
system.l2.overall_hits::.cpu.data              695393                       # number of overall hits
system.l2.overall_hits::total                  695443                       # number of overall hits
system.l2.demand_misses::.cpu.inst                268                       # number of demand (read+write) misses
system.l2.demand_misses::.cpu.data              74075                       # number of demand (read+write) misses
system.l2.demand_misses::total                  74343                       # number of demand (read+write) misses
system.l2.overall_misses::.cpu.inst               268                       # number of overall misses
system.l2.overall_misses::.cpu.data             74075                       # number of overall misses
system.l2.overall_misses::total                 74343                       # number of overall misses
system.l2.demand_miss_latency::.cpu.inst     26290500                       # number of demand (read+write) miss cycles
system.l2.demand_miss_latency::.cpu.data   8806553500                       # number of demand (read+write) miss cycles
system.l2.demand_miss_latency::total       8832844000                       # number of demand (read+write) miss cycles
system.l2.overall_miss_latency::.cpu.inst     26290500                       # number of overall miss cycles
system.l2.overall_miss_latency::.cpu.data   8806553500                       # number of overall miss cycles
system.l2.overall_miss_latency::total      8832844000                       # number of overall miss cycles
system.l2.demand_accesses::.cpu.inst              318                       # number of demand (read+write) accesses
system.l2.demand_accesses::.cpu.data           769468                       # number of demand (read+write) accesses
system.l2.demand_accesses::total               769786                       # number of demand (read+write) accesses
system.l2.overall_accesses::.cpu.inst             318                       # number of overall (read+write) accesses
system.l2.overall_accesses::.cpu.data          769468                       # number of overall (read+write) accesses
system.l2.overall_accesses::total              769786                       # number of overall (read+write) accesses
system.l2.demand_miss_rate::.cpu.inst        0.842767                       # miss rate for demand accesses
system.l2.demand_miss_rate::.cpu.data        0.096268                       # miss rate for demand accesses
system.l2.demand_miss_rate::total            0.096576                       # miss rate for demand accesses
system.l2.overall_miss_rate::.cpu.inst       0.842767                       # miss rate for overall accesses
system.l2.overall_miss_rate::.cpu.data       0.096268                       # miss rate for overall accesses
system.l2.overall_miss_rate::total           0.096576                       # miss rate for overall accesses
system.l2.demand_avg_miss_latency::.cpu.inst 98098.880597                       # average overall miss latency
system.l2.demand_avg_miss_latency::.cpu.data 118886.986163                       # average overall miss latency
system.l2.demand_avg_miss_latency::total 118812.046864                       # average overall miss latency
system.l2.overall_avg_miss_latency::.cpu.inst 98098.880597                       # average overall miss latency
system.l2.overall_avg_miss_latency::.cpu.data 118886.986163                       # average overall miss latency
system.l2.overall_avg_miss_latency::total 118812.046864                       # average overall miss latency
system.l2.blocked_cycles::no_mshrs                  0                       # number of cycles access was blocked
system.l2.blocked_cycles::no_targets                0                       # number of cycles access was blocked
system.l2.blocked::no_mshrs                         0                       # number of cycles access was blocked
system.l2.blocked::no_targets                       0                       # number of cycles access was blocked
system.l2.avg_blocked_cycles::no_mshrs            nan                       # average number of cycles each access was blocked
system.l2.avg_blocked_cycles::no_targets          nan                       # average number of cycles each access was blocked
system.l2.writebacks::.writebacks               40231                       # number of writebacks
system.l2.writebacks::total                     40231                       # number of writebacks
system.l2.demand_mshr_hits::.cpu.data               5                       # number of demand (read+write) MSHR hits
system.l2.demand_mshr_hits::total                   5                       # number of demand (read+write) MSHR hits
system.l2.overall_mshr_hits::.cpu.data              5                       # number of overall MSHR hits
system.l2.overall_mshr_hits::total                  5                       # number of overall MSHR hits
system.l2.demand_mshr_misses::.cpu.inst           268                       # number of demand (read+write) MSHR misses
system.l2.demand_mshr_misses::.cpu.data         74070                       # number of demand (read+write) MSHR misses
system.l2.demand_mshr_misses::total             74338                       # number of demand (read+write) MSHR misses
system.l2.overall_mshr_misses::.cpu.inst          268                       # number of overall MSHR misses
system.l2.overall_mshr_misses::.cpu.data        74070                       # number of overall MSHR misses
system.l2.overall_mshr_misses::total            74338                       # number of overall MSHR misses
system.l2.demand_mshr_miss_latency::.cpu.inst     23610500                       # number of demand (read+write) MSHR miss cycles
system.l2.demand_mshr_miss_latency::.cpu.data   8065401500                       # number of demand (read+write) MSHR miss cycles
system.l2.demand_mshr_miss_latency::total   8089012000                       # number of demand (read+write) MSHR miss cycles
system.l2.overall_mshr_miss_latency::.cpu.inst     23610500                       # number of overall MSHR miss cycles
system.l2.overall_mshr_miss_latency::.cpu.data   8065401500                       # number of overall MSHR miss cycles
system.l2.overall_mshr_miss_latency::total   8089012000                       # number of overall MSHR miss cycles
system.l2.demand_mshr_miss_rate::.cpu.inst     0.842767                       # mshr miss rate for demand accesses
system.l2.demand_mshr_miss_rate::.cpu.data     0.096261                       # mshr miss rate for demand accesses
system.l2.demand_mshr_miss_rate::total       0.096570                       # mshr miss rate for demand accesses
system.l2.overall_mshr_miss_rate::.cpu.inst     0.842767                       # mshr miss rate for overall accesses
system.l2.overall_mshr_miss_rate::.cpu.data     0.096261                       # mshr miss rate for overall accesses
system.l2.overall_mshr_miss_rate::total      0.096570                       # mshr miss rate for overall accesses
system.l2.demand_avg_mshr_miss_latency::.cpu.inst 88098.880597                       # average overall mshr miss latency
system.l2.demand_avg_mshr_miss_latency::.cpu.data 108888.909140                       # average overall mshr miss latency
system.l2.demand_avg_mshr_miss_latency::total 108813.957868                       # average overall mshr miss latency
system.l2.overall_avg_mshr_miss_latency::.cpu.inst 88098.880597                       # average overall mshr miss latency
system.l2.overall_avg_mshr_miss_latency::.cpu.data 108888.909140                       # average overall mshr miss latency
system.l2.overall_avg_mshr_miss_latency::total 108813.957868                       # average overall mshr miss latency
system.l2.replacements                          58004                       # number of replacements
system.l2.WritebackDirty_hits::.writebacks       747339                       # number of WritebackDirty hits
system.l2.WritebackDirty_hits::total           747339                       # number of WritebackDirty hits
system.l2.WritebackDirty_accesses::.writebacks       747339                       # number of WritebackDirty accesses(hits+misses)
system.l2.WritebackDirty_accesses::total       747339                       # number of WritebackDirty accesses(hits+misses)
system.l2.WritebackClean_hits::.writebacks          114                       # number of WritebackClean hits
system.l2.WritebackClean_hits::total              114                       # number of WritebackClean hits
system.l2.WritebackClean_accesses::.writebacks          114                       # number of WritebackClean accesses(hits+misses)
system.l2.WritebackClean_accesses::total          114                       # number of WritebackClean accesses(hits+misses)
system.l2.ReadExReq_hits::.cpu.data            271605                       # number of ReadExReq hits
system.l2.ReadExReq_hits::total                271605                       # number of ReadExReq hits
system.l2.ReadExReq_misses::.cpu.data           54987                       # number of ReadExReq misses
system.l2.ReadExReq_misses::total               54987                       # number of ReadExReq misses
system.l2.ReadExReq_miss_latency::.cpu.data   6899140500                       # number of ReadExReq miss cycles
system.l2.ReadExReq_miss_latency::total    6899140500                       # number of ReadExReq miss cycles
system.l2.ReadExReq_accesses::.cpu.data        326592                       # number of ReadExReq accesses(hits+misses)
system.l2.ReadExReq_accesses::total            326592                       # number of ReadExReq accesses(hits+misses)
system.l2.ReadExReq_miss_rate::.cpu.data     0.168366                       # miss rate for ReadExReq accesses
system.l2.ReadExReq_miss_rate::total         0.168366                       # miss rate for ReadExReq accesses
system.l2.ReadExReq_avg_miss_latency::.cpu.data 125468.574390                       # average ReadExReq miss latency
system.l2.ReadExReq_avg_miss_latency::total 125468.574390                       # average ReadExReq miss latency
system.l2.ReadExReq_mshr_misses::.cpu.data        54987                       # number of ReadExReq MSHR misses
system.l2.ReadExReq_mshr_misses::total          54987                       # number of ReadExReq MSHR misses
system.l2.ReadExReq_mshr_miss_latency::.cpu.data   6349270500                       # number of ReadExReq MSHR miss cycles
system.l2.ReadExReq_mshr_miss_latency::total   6349270500                       # number of ReadExReq MSHR miss cycles
system.l2.ReadExReq_mshr_miss_rate::.cpu.data     0.168366                       # mshr miss rate for ReadExReq accesses
system.l2.ReadExReq_mshr_miss_rate::total     0.168366                       # mshr miss rate for ReadExReq accesses
system.l2.ReadExReq_avg_mshr_miss_latency::.cpu.data 115468.574390                       # average ReadExReq mshr miss latency
system.l2.ReadExReq_avg_mshr_miss_latency::total 115468.574390                       # average ReadExReq mshr miss latency
system.l2.ReadCleanReq_hits::.cpu.inst             50                       # number of ReadCleanReq hits
system.l2.ReadCleanReq_hits::total                 50                       # number of ReadCleanReq hits
system.l2.ReadCleanReq_misses::.cpu.inst          268                       # number of ReadCleanReq misses
system.l2.ReadCleanReq_misses::total              268                       # number of ReadCleanReq misses
system.l2.ReadCleanReq_miss_latency::.cpu.inst     26290500                       # number of ReadCleanReq miss cycles
system.l2.ReadCleanReq_miss_latency::total     26290500                       # number of ReadCleanReq miss cycles
system.l2.ReadCleanReq_accesses::.cpu.inst          318                       # number of ReadCleanReq accesses(hits+misses)
system.l2.ReadCleanReq_accesses::total            318                       # number of ReadCleanReq accesses(hits+misses)
system.l2.ReadCleanReq_miss_rate::.cpu.inst     0.842767                       # miss rate for ReadCleanReq accesses
system.l2.ReadCleanReq_miss_rate::total      0.842767                       # miss rate for ReadCleanReq accesses
system.l2.ReadCleanReq_avg_miss_latency::.cpu.inst 98098.880597                       # average ReadCleanReq miss latency
system.l2.ReadCleanReq_avg_miss_latency::total 98098.880597                       # average ReadCleanReq miss latency
system.l2.ReadCleanReq_mshr_misses::.cpu.inst          268                       # number of ReadCleanReq MSHR misses
system.l2.ReadCleanReq_mshr_misses::total          268                       # number of ReadCleanReq MSHR misses
system.l2.ReadCleanReq_mshr_miss_latency::.cpu.inst     23610500                       # number of ReadCleanReq MSHR miss cycles
system.l2.ReadCleanReq_mshr_miss_latency::total     23610500                       # number of ReadCleanReq MSHR miss cycles
system.l2.ReadCleanReq_mshr_miss_rate::.cpu.inst     0.842767                       # mshr miss rate for ReadCleanReq accesses
system.l2.ReadCleanReq_mshr_miss_rate::total     0.842767                       # mshr miss rate for ReadCleanReq accesses
system.l2.ReadCleanReq_avg_mshr_miss_latency::.cpu.inst 88098.880597                       # average ReadCleanReq mshr miss latency
system.l2.ReadCleanReq_avg_mshr_miss_latency::total 88098.880597                       # average ReadCleanReq mshr miss latency
system.l2.ReadSharedReq_hits::.cpu.data        423788                       # number of ReadSharedReq hits
system.l2.ReadSharedReq_hits::total            423788                       # number of ReadSharedReq hits
system.l2.ReadSharedReq_misses::.cpu.data        19088                       # number of ReadSharedReq misses
system.l2.ReadSharedReq_misses::total           19088                       # number of ReadSharedReq misses
system.l2.ReadSharedReq_miss_latency::.cpu.data   1907413000                       # number of ReadSharedReq miss cycles
system.l2.ReadSharedReq_miss_latency::total   1907413000                       # number of ReadSharedReq miss cycles
system.l2.ReadSharedReq_accesses::.cpu.data       442876                       # number of ReadSharedReq accesses(hits+misses)
system.l2.ReadSharedReq_accesses::total        442876                       # number of ReadSharedReq accesses(hits+misses)
system.l2.ReadSharedReq_miss_rate::.cpu.data     0.043100                       # miss rate for ReadSharedReq accesses
system.l2.ReadSharedReq_miss_rate::total     0.043100                       # miss rate for ReadSharedReq accesses
system.l2.ReadSharedReq_avg_miss_latency::.cpu.data 99927.336547                       # average ReadSharedReq miss latency
system.l2.ReadSharedReq_avg_miss_latency::total 99927.336547                       # average ReadSharedReq miss latency
system.l2.ReadSharedReq_mshr_hits::.cpu.data            5                       # number of ReadSharedReq MSHR hits
system.l2.ReadSharedReq_mshr_hits::total            5                       # number of ReadSharedReq MSHR hits
system.l2.ReadSharedReq_mshr_misses::.cpu.data        19083                       # number of ReadSharedReq MSHR misses
system.l2.ReadSharedReq_mshr_misses::total        19083                       # number of ReadSharedReq MSHR misses
system.l2.ReadSharedReq_mshr_miss_latency::.cpu.data   1716131000                       # number of ReadSharedReq MSHR miss cycles
system.l2.ReadSharedReq_mshr_miss_latency::total   1716131000                       # number of ReadSharedReq MSHR miss cycles
system.l2.ReadSharedReq_mshr_miss_rate::.cpu.data     0.043089                       # mshr miss rate for ReadSharedReq accesses
system.l2.ReadSharedReq_mshr_miss_rate::total     0.043089                       # mshr miss rate for ReadSharedReq accesses
system.l2.ReadSharedReq_avg_mshr_miss_latency::.cpu.data 89929.832836                       # average ReadSharedReq mshr miss latency
system.l2.ReadSharedReq_avg_mshr_miss_latency::total 89929.832836                       # average ReadSharedReq mshr miss latency
system.l2.tags.pwrStateResidencyTicks::UNDEFINED  82444607500                       # Cumulative time (in ticks) in various power states
system.l2.tags.tagsinuse                 15858.873141                       # Cycle average of tags in use
system.l2.tags.total_refs                     1538823                       # Total number of references to valid blocks.
system.l2.tags.sampled_refs                     74388                       # Sample count of references to valid blocks.
system.l2.tags.avg_refs                     20.686441                       # Average number of references to valid blocks.
system.l2.tags.warmup_cycle                     92000                       # Cycle when the warmup percentage was hit.
system.l2.tags.occ_blocks::.writebacks      24.692245                       # Average occupied blocks per requestor
system.l2.tags.occ_blocks::.cpu.inst        37.845239                       # Average occupied blocks per requestor
system.l2.tags.occ_blocks::.cpu.data     15796.335656                       # Average occupied blocks per requestor
system.l2.tags.occ_percent::.writebacks      0.001507                       # Average percentage of cache occupancy
system.l2.tags.occ_percent::.cpu.inst        0.002310                       # Average percentage of cache occupancy
system.l2.tags.occ_percent::.cpu.data        0.964132                       # Average percentage of cache occupancy
system.l2.tags.occ_percent::total            0.967949                       # Average percentage of cache occupancy
system.l2.tags.occ_task_id_blocks::1024         16384                       # Occupied blocks per task id
system.l2.tags.age_task_id_blocks_1024::2            3                       # Occupied blocks per task id
system.l2.tags.age_task_id_blocks_1024::3          937                       # Occupied blocks per task id
system.l2.tags.age_task_id_blocks_1024::4        15444                       # Occupied blocks per task id
system.l2.tags.occ_task_id_percent::1024            1                       # Percentage of cache occupancy per task id
system.l2.tags.tag_accesses                  12385012                       # Number of tag accesses
system.l2.tags.data_accesses                 12385012                       # Number of data accesses
system.cpu_voltage_domain.voltage                   1                       # Voltage in Volts
system.mem_ctrls.pwrStateResidencyTicks::UNDEFINED  82444607500                       # Cumulative time (in ticks) in various power states
system.mem_ctrls.bytes_read::.cpu.inst          68608                       # Number of bytes read from this memory
system.mem_ctrls.bytes_read::.cpu.data       18961920                       # Number of bytes read from this memory
system.mem_ctrls.bytes_read::total           19030528                       # Number of bytes read from this memory
system.mem_ctrls.bytes_inst_read::.cpu.inst        68608                       # Number of instructions bytes read from this memory
system.mem_ctrls.bytes_inst_read::total         68608                       # Number of instructions bytes read from this memory
system.mem_ctrls.bytes_written::.writebacks     10299136                       # Number of bytes written to this memory
system.mem_ctrls.bytes_written::total        10299136                       # Number of bytes written to this memory
system.mem_ctrls.num_reads::.cpu.inst             268                       # Number of read requests responded to by this memory
system.mem_ctrls.num_reads::.cpu.data           74070                       # Number of read requests responded to by this memory
system.mem_ctrls.num_reads::total               74338                       # Number of read requests responded to by this memory
system.mem_ctrls.num_writes::.writebacks        40231                       # Number of write requests responded to by this memory
system.mem_ctrls.num_writes::total              40231                       # Number of write requests responded to by this memory
system.mem_ctrls.bw_read::.cpu.inst            832171                       # Total read bandwidth from this memory (bytes/s)
system.mem_ctrls.bw_read::.cpu.data         229995879                       # Total read bandwidth from this memory (bytes/s)
system.mem_ctrls.bw_read::total             230828050                       # Total read bandwidth from this memory (bytes/s)
system.mem_ctrls.bw_inst_read::.cpu.inst       832171                       # Instruction read bandwidth from this memory (bytes/s)
system.mem_ctrls.bw_inst_read::total           832171                       # Instruction read bandwidth from this memory (bytes/s)
system.mem_ctrls.bw_write::.writebacks      124921888                       # Write bandwidth from this memory (bytes/s)
system.mem_ctrls.bw_write::total            124921888                       # Write bandwidth from this memory (bytes/s)
system.mem_ctrls.bw_total::.writebacks      124921888                       # Total bandwidth to/from this memory (bytes/s)
system.mem_ctrls.bw_total::.cpu.inst           832171                       # Total bandwidth to/from this memory (bytes/s)
system.mem_ctrls.bw_total::.cpu.data        229995879                       # Total bandwidth to/from this memory (bytes/s)
system.mem_ctrls.bw_total::total            355749938                       # Total bandwidth to/from this memory (bytes/s)
system.mem_ctrls.avgPriority_.writebacks::samples    160924.00                       # Average QoS priority value for accepted requests
system.mem_ctrls.avgPriority_.cpu.inst::samples      1072.00                       # Average QoS priority value for accepted requests
system.mem_ctrls.avgPriority_.cpu.data::samples    296261.00                       # Average QoS priority value for accepted requests
system.mem_ctrls.priorityMinLatency      0.000000018750                       # per QoS priority minimum request to response latency (s)
system.mem_ctrls.priorityMaxLatency      0.010192986500                       # per QoS priority maximum request to response latency (s)
system.mem_ctrls.numReadWriteTurnArounds         9859                       # Number of turnarounds from READ to WRITE
system.mem_ctrls.numWriteReadTurnArounds         9859                       # Number of turnarounds from WRITE to READ
system.mem_ctrls.numStayReadState              411945                       # Number of times bus staying in READ state
system.mem_ctrls.numStayWriteState             151242                       # Number of times bus staying in WRITE state
system.mem_ctrls.readReqs                       74338                       # Number of read requests accepted
system.mem_ctrls.writeReqs                      40231                       # Number of write requests accepted
system.mem_ctrls.readBursts                    297352                       # Number of DRAM read bursts, including those serviced by the write queue
system.mem_ctrls.writeBursts                   160924                       # Number of DRAM write bursts, including those merged in the write queue
system.mem_ctrls.servicedByWrQ                     19                       # Number of DRAM read bursts serviced by the write queue
system.mem_ctrls.mergedWrBursts                     0                       # Number of DRAM write bursts merged with an existing one
system.mem_ctrls.neitherReadNorWriteReqs            0                       # Number of requests that are neither read nor write
system.mem_ctrls.perBankRdBursts::0             18860                       # Per bank write bursts
system.mem_ctrls.perBankRdBursts::1             18817                       # Per bank write bursts
system.mem_ctrls.perBankRdBursts::2             18764                       # Per bank write bursts
system.mem_ctrls.perBankRdBursts::3             18480                       # Per bank write bursts
system.mem_ctrls.perBankRdBursts::4             18580                       # Per bank write bursts
system.mem_ctrls.perBankRdBursts::5             18556                       # Per bank write bursts
system.mem_ctrls.perBankRdBursts::6             18472                       # Per bank write bursts
system.mem_ctrls.perBankRdBursts::7             18588                       # Per bank write bursts
system.mem_ctrls.perBankRdBursts::8             18496                       # Per bank write bursts
system.mem_ctrls.perBankRdBursts::9             18496                       # Per bank write bursts
system.mem_ctrls.perBankRdBursts::10            18676                       # Per bank write bursts
system.mem_ctrls.perBankRdBursts::11            18644                       # Per bank write bursts
system.mem_ctrls.perBankRdBursts::12            18580                       # Per bank write bursts
system.mem_ctrls.perBankRdBursts::13            18356                       # Per bank write bursts
system.mem_ctrls.perBankRdBursts::14            18364                       # Per bank write bursts
system.mem_ctrls.perBankRdBursts::15            18604                       # Per bank write bursts
system.mem_ctrls.perBankWrBursts::0             10112                       # Per bank write bursts
system.mem_ctrls.perBankWrBursts::1             10125                       # Per bank write bursts
system.mem_ctrls.perBankWrBursts::2             10184                       # Per bank write bursts
system.mem_ctrls.perBankWrBursts::3             10160                       # Per bank write bursts
system.mem_ctrls.perBankWrBursts::4             10104                       # Per bank write bursts
system.mem_ctrls.perBankWrBursts::5             10076                       # Per bank write bursts
system.mem_ctrls.perBankWrBursts::6             10052                       # Per bank write bursts
system.mem_ctrls.perBankWrBursts::7             10116                       # Per bank write bursts
system.mem_ctrls.perBankWrBursts::8             10028                       # Per bank write bursts
system.mem_ctrls.perBankWrBursts::9              9984                       # Per bank write bursts
system.mem_ctrls.perBankWrBursts::10             9984                       # Per bank write bursts
system.mem_ctrls.perBankWrBursts::11             9984                       # Per bank write bursts
system.mem_ctrls.perBankWrBursts::12             9972                       # Per bank write bursts
system.mem_ctrls.perBankWrBursts::13             9992                       # Per bank write bursts
system.mem_ctrls.perBankWrBursts::14            10000                       # Per bank write bursts
system.mem_ctrls.perBankWrBursts::15            10032                       # Per bank write bursts
system.mem_ctrls.avgRdQLen                       4.09                       # Average read queue length when enqueuing
system.mem_ctrls.avgWrQLen                      28.14                       # Average write queue length when enqueuing
system.mem_ctrls.totQLat                  11643164500                       # Total ticks spent queuing
system.mem_ctrls.totBusLat                 1486665000                       # Total ticks spent in databus transfers
system.mem_ctrls.totMemAccLat             17218158250                       # Total ticks spent from burst creation until serviced by the DRAM
system.mem_ctrls.avgQLat                     39158.67                       # Average queueing delay per DRAM burst
system.mem_ctrls.avgBusLat                    5000.00                       # Average bus latency per DRAM burst
system.mem_ctrls.avgMemAccLat                57908.67                       # Average memory access latency per DRAM burst
system.mem_ctrls.numRdRetry                         0                       # Number of times read queue was full causing retry
system.mem_ctrls.numWrRetry                         0                       # Number of times write queue was full causing retry
system.mem_ctrls.readRowHits                   267533                       # Number of row buffer hits during reads
system.mem_ctrls.writeRowHits                  144818                       # Number of row buffer hits during writes
system.mem_ctrls.readRowHitRate                 89.98                       # Row buffer hit rate for reads
system.mem_ctrls.writeRowHitRate                89.99                       # Row buffer hit rate for writes
system.mem_ctrls.readPktSize::0                     0                       # Read request sizes (log2)
system.mem_ctrls.readPktSize::1                     0                       # Read request sizes (log2)
system.mem_ctrls.readPktSize::2                     0                       # Read request sizes (log2)
system.mem_ctrls.readPktSize::3                     0                       # Read request sizes (log2)
system.mem_ctrls.readPktSize::4                     0                       # Read request sizes (log2)
system.mem_ctrls.readPktSize::5                     0                       # Read request sizes (log2)
system.mem_ctrls.readPktSize::6                297352                       # Read request sizes (log2)
system.mem_ctrls.writePktSize::0                    0                       # Write request sizes (log2)
system.mem_ctrls.writePktSize::1                    0                       # Write request sizes (log2)
system.mem_ctrls.writePktSize::2                    0                       # Write request sizes (log2)
system.mem_ctrls.writePktSize::3                    0                       # Write request sizes (log2)
system.mem_ctrls.writePktSize::4                    0                       # Write request sizes (log2)
system.mem_ctrls.writePktSize::5                    0                       # Write request sizes (log2)
system.mem_ctrls.writePktSize::6               160924                       # Write request sizes (log2)
system.mem_ctrls.rdQLenPdf::0                   58708                       # What read queue length does an incoming req see
system.mem_ctrls.rdQLenPdf::1                   58782                       # What read queue length does an incoming req see
system.mem_ctrls.rdQLenPdf::2                   58907                       # What read queue length does an incoming req see
system.mem_ctrls.rdQLenPdf::3                   60008                       # What read queue length does an incoming req see
system.mem_ctrls.rdQLenPdf::4                   15624                       # What read queue length does an incoming req see
system.mem_ctrls.rdQLenPdf::5                   15549                       # What read queue length does an incoming req see
system.mem_ctrls.rdQLenPdf::6                   15424                       # What read queue length does an incoming req see
system.mem_ctrls.rdQLenPdf::7                   14323                       # What read queue length does an incoming req see
system.mem_ctrls.rdQLenPdf::8                       2                       # What read queue length does an incoming req see
system.mem_ctrls.rdQLenPdf::9                       2                       # What read queue length does an incoming req see
system.mem_ctrls.rdQLenPdf::10                      2                       # What read queue length does an incoming req see
system.mem_ctrls.rdQLenPdf::11                      2                       # What read queue length does an incoming req see
system.mem_ctrls.rdQLenPdf::12                      0                       # What read queue length does an incoming req see
system.mem_ctrls.rdQLenPdf::13                      0                       # What read queue length does an incoming req see
system.mem_ctrls.rdQLenPdf::14                      0                       # What read queue length does an incoming req see
system.mem_ctrls.rdQLenPdf::15                      0                       # What read queue length does an incoming req see
system.mem_ctrls.rdQLenPdf::16                      0                       # What read queue length does an incoming req see
system.mem_ctrls.rdQLenPdf::17                      0                       # What read queue length does an incoming req see
system.mem_ctrls.rdQLenPdf::18                      0                       # What read queue length does an incoming req see
system.mem_ctrls.rdQLenPdf::19                      0                       # What read queue length does an incoming req see
system.mem_ctrls.rdQLenPdf::20                      0                       # What read queue length does an incoming req see
system.mem_ctrls.rdQLenPdf::21                      0                       # What read queue length does an incoming req see
system.mem_ctrls.rdQLenPdf::22                      0                       # What read queue length does an incoming req see
system.mem_ctrls.rdQLenPdf::23                      0                       # What read queue length does an incoming req see
system.mem_ctrls.rdQLenPdf::24                      0                       # What read queue length does an incoming req see
system.mem_ctrls.rdQLenPdf::25                      0                       # What read queue length does an incoming req see
system.mem_ctrls.rdQLenPdf::26                      0                       # What read queue length does an incoming req see
system.mem_ctrls.rdQLenPdf::27                      0                       # What read queue length does an incoming req see
system.mem_ctrls.rdQLenPdf::28                      0                       # What read queue length does an incoming req see
system.mem_ctrls.rdQLenPdf::29                      0                       # What read queue length does an incoming req see
system.mem_ctrls.rdQLenPdf::30                      0                       # What read queue length does an incoming req see
system.mem_ctrls.rdQLenPdf::31                      0                       # What read queue length does an incoming req see
system.mem_ctrls.wrQLenPdf::0                       1                       # What write queue length does an incoming req see
system.mem_ctrls.wrQLenPdf::1                       1                       # What write queue length does an incoming req see
system.mem_ctrls.wrQLenPdf::2                       1                       # What write queue length does an incoming req see
system.mem_ctrls.wrQLenPdf::3                       1                       # What write queue length does an incoming req see
system.mem_ctrls.wrQLenPdf::4                       1                       # What write queue length does an incoming req see
system.mem_ctrls.wrQLenPdf::5                       1                       # What write queue length does an incoming req see
system.mem_ctrls.wrQLenPdf::6                       1                       # What write queue length does an incoming req see
system.mem_ctrls.wrQLenPdf::7                       1                       # What write queue length does an incoming req see
system.mem_ctrls.wrQLenPdf::8                       1                       # What write queue length does an incoming req see
system.mem_ctrls.wrQLenPdf::9                       1                       # What write queue length does an incoming req see
system.mem_ctrls.wrQLenPdf::10                      1                       # What write queue length does an incoming req see
system.mem_ctrls.wrQLenPdf::11                      1                       # What write queue length does an incoming req see
system.mem_ctrls.wrQLenPdf::12                      1                       # What write queue length does an incoming req see
system.mem_ctrls.wrQLenPdf::13                      1                       # What write queue length does an incoming req see
system.mem_ctrls.wrQLenPdf::14                      1                       # What write queue length does an incoming req see
system.mem_ctrls.wrQLenPdf::15                    680                       # What write queue length does an incoming req see
system.mem_ctrls.wrQLenPdf::16                    697                       # What write queue length does an incoming req see
system.mem_ctrls.wrQLenPdf::17                   1316                       # What write queue length does an incoming req see
system.mem_ctrls.wrQLenPdf::18                   1951                       # What write queue length does an incoming req see
system.mem_ctrls.wrQLenPdf::19                   3840                       # What write queue length does an incoming req see
system.mem_ctrls.wrQLenPdf::20                   5386                       # What write queue length does an incoming req see
system.mem_ctrls.wrQLenPdf::21                   6448                       # What write queue length does an incoming req see
system.mem_ctrls.wrQLenPdf::22                   7762                       # What write queue length does an incoming req see
system.mem_ctrls.wrQLenPdf::23                   8575                       # What write queue length does an incoming req see
system.mem_ctrls.wrQLenPdf::24                  10681                       # What write queue length does an incoming req see
system.mem_ctrls.wrQLenPdf::25                  10727                       # What write queue length does an incoming req see
system.mem_ctrls.wrQLenPdf::26                  11715                       # What write queue length does an incoming req see
system.mem_ctrls.wrQLenPdf::27                  12231                       # What write queue length does an incoming req see
system.mem_ctrls.wrQLenPdf::28                  12295                       # What write queue length does an incoming req see
system.mem_ctrls.wrQLenPdf::29                  13276                       # What write queue length does an incoming req see
system.mem_ctrls.wrQLenPdf::30                  12272                       # What write queue length does an incoming req see
system.mem_ctrls.wrQLenPdf::31                  11517                       # What write queue length does an incoming req see
system.mem_ctrls.wrQLenPdf::32                  11123                       # What write queue length does an incoming req see
system.mem_ctrls.wrQLenPdf::33                   8427                       # What write queue length does an incoming req see
system.mem_ctrls.wrQLenPdf::34                   6503                       # What write queue length does an incoming req see
system.mem_ctrls.wrQLenPdf::35                   3371                       # What write queue length does an incoming req see
system.mem_ctrls.wrQLenPdf::36                     45                       # What write queue length does an incoming req see
system.mem_ctrls.wrQLenPdf::37                     33                       # What write queue length does an incoming req see
system.mem_ctrls.wrQLenPdf::38                     24                       # What write queue length does an incoming req see
system.mem_ctrls.wrQLenPdf::39                     14                       # What write queue length does an incoming req see
system.mem_ctrls.wrQLenPdf::40                      0                       # What write queue length does an incoming req see
system.mem_ctrls.wrQLenPdf::41                      0                       # What write queue length does an incoming req see
system.mem_ctrls.wrQLenPdf::42                      0                       # What write queue length does an incoming req see
system.mem_ctrls.wrQLenPdf::43                      0                       # What write queue length does an incoming req see
system.mem_ctrls.wrQLenPdf::44                      0                       # What write queue length does an incoming req see
system.mem_ctrls.wrQLenPdf::45                      0                       # What write queue length does an incoming req see
system.mem_ctrls.wrQLenPdf::46                      0                       # What write queue length does an incoming req see
system.mem_ctrls.wrQLenPdf::47                      0                       # What write queue length does an incoming req see
system.mem_ctrls.wrQLenPdf::48                      0                       # What write queue length does an incoming req see
system.mem_ctrls.wrQLenPdf::49                      0                       # What write queue length does an incoming req see
system.mem_ctrls.wrQLenPdf::50                      0                       # What write queue length does an incoming req see
system.mem_ctrls.wrQLenPdf::51                      0                       # What write queue length does an incoming req see
system.mem_ctrls.wrQLenPdf::52                      0                       # What write queue length does an incoming req see
system.mem_ctrls.wrQLenPdf::53                      0                       # What write queue length does an incoming req see
system.mem_ctrls.wrQLenPdf::54                      0                       # What write queue length does an incoming req see
system.mem_ctrls.wrQLenPdf::55                      0                       # What write queue length does an incoming req see
system.mem_ctrls.wrQLenPdf::56                      0                       # What write queue length does an incoming req see
system.mem_ctrls.wrQLenPdf::57                      0                       # What write queue length does an incoming req see
system.mem_ctrls.wrQLenPdf::58                      0                       # What write queue length does an incoming req see
system.mem_ctrls.wrQLenPdf::59                      0                       # What write queue length does an incoming req see
system.mem_ctrls.wrQLenPdf::60                      0                       # What write queue length does an incoming req see
system.mem_ctrls.wrQLenPdf::61                      0                       # What write queue length does an incoming req see
system.mem_ctrls.wrQLenPdf::62                      0                       # What write queue length does an incoming req see
system.mem_ctrls.wrQLenPdf::63                      0                       # What write queue length does an incoming req see
system.mem_ctrls.bytesPerActivate::samples        45887                       # Bytes accessed per row activation
system.mem_ctrls.bytesPerActivate::mean    639.118530                       # Bytes accessed per row activation
system.mem_ctrls.bytesPerActivate::gmean   530.116836                       # Bytes accessed per row activation
system.mem_ctrls.bytesPerActivate::stdev   342.509642                       # Bytes accessed per row activation
system.mem_ctrls.bytesPerActivate::0-127          606      1.32%      1.32% # Bytes accessed per row activation
system.mem_ctrls.bytesPerActivate::128-255          907      1.98%      3.30% # Bytes accessed per row activation
system.mem_ctrls.bytesPerActivate::256-383        14937     32.55%     35.85% # Bytes accessed per row activation
system.mem_ctrls.bytesPerActivate::384-511         1001      2.18%     38.03% # Bytes accessed per row activation
system.mem_ctrls.bytesPerActivate::512-639         5845     12.74%     50.77% # Bytes accessed per row activation
system.mem_ctrls.bytesPerActivate::640-767         1208      2.63%     53.40% # Bytes accessed per row activation
system.mem_ctrls.bytesPerActivate::768-895         3482      7.59%     60.99% # Bytes accessed per row activation
system.mem_ctrls.bytesPerActivate::896-1023          452      0.99%     61.97% # Bytes accessed per row activation
system.mem_ctrls.bytesPerActivate::1024-1151        17449     38.03%    100.00% # Bytes accessed per row activation
system.mem_ctrls.bytesPerActivate::total        45887                       # Bytes accessed per row activation
system.mem_ctrls.rdPerTurnAround::samples         9859                       # Reads before turning the bus around for writes
system.mem_ctrls.rdPerTurnAround::mean      30.158130                       # Reads before turning the bus around for writes
system.mem_ctrls.rdPerTurnAround::gmean     21.835517                       # Reads before turning the bus around for writes
system.mem_ctrls.rdPerTurnAround::stdev    177.742151                       # Reads before turning the bus around for writes
system.mem_ctrls.rdPerTurnAround::0-1023         9857     99.98%     99.98% # Reads before turning the bus around for writes
system.mem_ctrls.rdPerTurnAround::1024-2047            1      0.01%     99.99% # Reads before turning the bus around for writes
system.mem_ctrls.rdPerTurnAround::16384-17407            1      0.01%    100.00% # Reads before turning the bus around for writes
system.mem_ctrls.rdPerTurnAround::total          9859                       # Reads before turning the bus around for writes
system.mem_ctrls.wrPerTurnAround::samples         9859                       # Writes before turning the bus around for reads
system.mem_ctrls.wrPerTurnAround::mean      16.320621                       # Writes before turning the bus around for reads
system.mem_ctrls.wrPerTurnAround::gmean     16.287646                       # Writes before turning the bus around for reads
system.mem_ctrls.wrPerTurnAround::stdev      1.109793                       # Writes before turning the bus around for reads
system.mem_ctrls.wrPerTurnAround::16             9080     92.10%     92.10% # Writes before turning the bus around for reads
system.mem_ctrls.wrPerTurnAround::17                6      0.06%     92.16% # Writes before turning the bus around for reads
system.mem_ctrls.wrPerTurnAround::18               17      0.17%     92.33% # Writes before turning the bus around for reads
[...]
system.cpu.icache.ReadReq_avg_miss_latency::.cpu.inst 87183.962264                       # average ReadReq miss latency
system.cpu.icache.ReadReq_avg_miss_latency::total 87183.962264                       # average ReadReq miss latency
system.cpu.icache.ReadReq_mshr_misses::.cpu.inst          318                       # number of ReadReq MSHR misses
system.cpu.icache.ReadReq_mshr_misses::total          318                       # number of ReadReq MSHR misses
system.cpu.icache.ReadReq_mshr_miss_latency::.cpu.inst     27406500                       # number of ReadReq MSHR miss cycles
system.cpu.icache.ReadReq_mshr_miss_latency::total     27406500                       # number of ReadReq MSHR miss cycles
system.cpu.icache.ReadReq_mshr_miss_rate::.cpu.inst     0.000045                       # mshr miss rate for ReadReq accesses
system.cpu.icache.ReadReq_mshr_miss_rate::total     0.000045                       # mshr miss rate for ReadReq accesses
system.cpu.icache.ReadReq_avg_mshr_miss_latency::.cpu.inst 86183.962264                       # average ReadReq mshr miss latency
system.cpu.icache.ReadReq_avg_mshr_miss_latency::total 86183.962264                       # average ReadReq mshr miss latency
system.cpu.icache.tags.pwrStateResidencyTicks::UNDEFINED  82444607500                       # Cumulative time (in ticks) in various power states
system.cpu.icache.tags.tagsinuse           174.714411                       # Cycle average of tags in use
system.cpu.icache.tags.total_refs             7019755                       # Total number of references to valid blocks.
system.cpu.icache.tags.sampled_refs               318                       # Sample count of references to valid blocks.
system.cpu.icache.tags.avg_refs          22074.701258                       # Average number of references to valid blocks.
system.cpu.icache.tags.warmup_cycle            102500                       # Cycle when the warmup percentage was hit.
system.cpu.icache.tags.occ_blocks::.cpu.inst   174.714411                       # Average occupied blocks per requestor
system.cpu.icache.tags.occ_percent::.cpu.inst     0.682478                       # Average percentage of cache occupancy
system.cpu.icache.tags.occ_percent::total     0.682478                       # Average percentage of cache occupancy
system.cpu.icache.tags.occ_task_id_blocks::1024          195                       # Occupied blocks per task id
system.cpu.icache.tags.age_task_id_blocks_1024::3           24                       # Occupied blocks per task id
system.cpu.icache.tags.age_task_id_blocks_1024::4          171                       # Occupied blocks per task id
system.cpu.icache.tags.occ_task_id_percent::1024     0.761719                       # Percentage of cache occupancy per task id
system.cpu.icache.tags.tag_accesses          14039828                       # Number of tag accesses
system.cpu.icache.tags.data_accesses         14039828                       # Number of data accesses
system.cpu.dtb.walker.pwrStateResidencyTicks::UNDEFINED  82444607500                       # Cumulative time (in ticks) in various power states
system.cpu.dtb.stage2_mmu.stage2_tlb.walker.pwrStateResidencyTicks::UNDEFINED  82444607500                       # Cumulative time (in ticks) in various power states
system.cpu.dcache.pwrStateResidencyTicks::UNDEFINED  82444607500                       # Cumulative time (in ticks) in various power states
system.cpu.dcache.demand_hits::.cpu.data     51262955                       # number of demand (read+write) hits
system.cpu.dcache.demand_hits::total         51262955                       # number of demand (read+write) hits
system.cpu.dcache.overall_hits::.cpu.data     51264219                       # number of overall hits
system.cpu.dcache.overall_hits::total        51264219                       # number of overall hits
system.cpu.dcache.demand_misses::.cpu.data       786010                       # number of demand (read+write) misses
system.cpu.dcache.demand_misses::total         786010                       # number of demand (read+write) misses
system.cpu.dcache.overall_misses::.cpu.data       793167                       # number of overall misses
system.cpu.dcache.overall_misses::total        793167                       # number of overall misses
system.cpu.dcache.demand_miss_latency::.cpu.data  19690582000                       # number of demand (read+write) miss cycles
system.cpu.dcache.demand_miss_latency::total  19690582000                       # number of demand (read+write) miss cycles
system.cpu.dcache.overall_miss_latency::.cpu.data  19690582000                       # number of overall miss cycles
system.cpu.dcache.overall_miss_latency::total  19690582000                       # number of overall miss cycles
system.cpu.dcache.demand_accesses::.cpu.data     52048965                       # number of demand (read+write) accesses
system.cpu.dcache.demand_accesses::total     52048965                       # number of demand (read+write) accesses
system.cpu.dcache.overall_accesses::.cpu.data     52057386                       # number of overall (read+write) accesses
system.cpu.dcache.overall_accesses::total     52057386                       # number of overall (read+write) accesses
system.cpu.dcache.demand_miss_rate::.cpu.data     0.015101                       # miss rate for demand accesses
system.cpu.dcache.demand_miss_rate::total     0.015101                       # miss rate for demand accesses
system.cpu.dcache.overall_miss_rate::.cpu.data     0.015236                       # miss rate for overall accesses
system.cpu.dcache.overall_miss_rate::total     0.015236                       # miss rate for overall accesses
system.cpu.dcache.demand_avg_miss_latency::.cpu.data 25051.312324                       # average overall miss latency
system.cpu.dcache.demand_avg_miss_latency::total 25051.312324                       # average overall miss latency
system.cpu.dcache.overall_avg_miss_latency::.cpu.data 24825.266306                       # average overall miss latency
system.cpu.dcache.overall_avg_miss_latency::total 24825.266306                       # average overall miss latency
system.cpu.dcache.blocked_cycles::no_mshrs            0                       # number of cycles access was blocked
system.cpu.dcache.blocked_cycles::no_targets            0                       # number of cycles access was blocked
system.cpu.dcache.blocked::no_mshrs                 0                       # number of cycles access was blocked
system.cpu.dcache.blocked::no_targets               0                       # number of cycles access was blocked
system.cpu.dcache.avg_blocked_cycles::no_mshrs          nan                       # average number of cycles each access was blocked
system.cpu.dcache.avg_blocked_cycles::no_targets          nan                       # average number of cycles each access was blocked
system.cpu.dcache.writebacks::.writebacks       747339                       # number of writebacks
system.cpu.dcache.writebacks::total            747339                       # number of writebacks
system.cpu.dcache.demand_mshr_hits::.cpu.data        18522                       # number of demand (read+write) MSHR hits
system.cpu.dcache.demand_mshr_hits::total        18522                       # number of demand (read+write) MSHR hits
system.cpu.dcache.overall_mshr_hits::.cpu.data        18522                       # number of overall MSHR hits
system.cpu.dcache.overall_mshr_hits::total        18522                       # number of overall MSHR hits
system.cpu.dcache.demand_mshr_misses::.cpu.data       767488                       # number of demand (read+write) MSHR misses
system.cpu.dcache.demand_mshr_misses::total       767488                       # number of demand (read+write) MSHR misses
system.cpu.dcache.overall_mshr_misses::.cpu.data       769468                       # number of overall MSHR misses
system.cpu.dcache.overall_mshr_misses::total       769468                       # number of overall MSHR misses
system.cpu.dcache.demand_mshr_miss_latency::.cpu.data  17319094500                       # number of demand (read+write) MSHR miss cycles
system.cpu.dcache.demand_mshr_miss_latency::total  17319094500                       # number of demand (read+write) MSHR miss cycles
system.cpu.dcache.overall_mshr_miss_latency::.cpu.data  17497486500                       # number of overall MSHR miss cycles
system.cpu.dcache.overall_mshr_miss_latency::total  17497486500                       # number of overall MSHR miss cycles
system.cpu.dcache.demand_mshr_miss_rate::.cpu.data     0.014745                       # mshr miss rate for demand accesses
system.cpu.dcache.demand_mshr_miss_rate::total     0.014745                       # mshr miss rate for demand accesses
system.cpu.dcache.overall_mshr_miss_rate::.cpu.data     0.014781                       # mshr miss rate for overall accesses
system.cpu.dcache.overall_mshr_miss_rate::total     0.014781                       # mshr miss rate for overall accesses
system.cpu.dcache.demand_avg_mshr_miss_latency::.cpu.data 22565.948262                       # average overall mshr miss latency
system.cpu.dcache.demand_avg_mshr_miss_latency::total 22565.948262                       # average overall mshr miss latency
system.cpu.dcache.overall_avg_mshr_miss_latency::.cpu.data 22739.719520                       # average overall mshr miss latency
system.cpu.dcache.overall_avg_mshr_miss_latency::total 22739.719520                       # average overall mshr miss latency
system.cpu.dcache.replacements                 769211                       # number of replacements
system.cpu.dcache.ReadReq_hits::.cpu.data     40656004                       # number of ReadReq hits
system.cpu.dcache.ReadReq_hits::total        40656004                       # number of ReadReq hits
system.cpu.dcache.ReadReq_misses::.cpu.data       442875                       # number of ReadReq misses
system.cpu.dcache.ReadReq_misses::total        442875                       # number of ReadReq misses
system.cpu.dcache.ReadReq_miss_latency::.cpu.data   7666594000                       # number of ReadReq miss cycles
system.cpu.dcache.ReadReq_miss_latency::total   7666594000                       # number of ReadReq miss cycles
system.cpu.dcache.ReadReq_accesses::.cpu.data     41098879                       # number of ReadReq accesses(hits+misses)
system.cpu.dcache.ReadReq_accesses::total     41098879                       # number of ReadReq accesses(hits+misses)
system.cpu.dcache.ReadReq_miss_rate::.cpu.data     0.010776                       # miss rate for ReadReq accesses
system.cpu.dcache.ReadReq_miss_rate::total     0.010776                       # miss rate for ReadReq accesses
system.cpu.dcache.ReadReq_avg_miss_latency::.cpu.data 17310.965848                       # average ReadReq miss latency
system.cpu.dcache.ReadReq_avg_miss_latency::total 17310.965848                       # average ReadReq miss latency
system.cpu.dcache.ReadReq_mshr_hits::.cpu.data         1979                       # number of ReadReq MSHR hits
system.cpu.dcache.ReadReq_mshr_hits::total         1979                       # number of ReadReq MSHR hits
system.cpu.dcache.ReadReq_mshr_misses::.cpu.data       440896                       # number of ReadReq MSHR misses
system.cpu.dcache.ReadReq_mshr_misses::total       440896                       # number of ReadReq MSHR misses
system.cpu.dcache.ReadReq_mshr_miss_latency::.cpu.data   7072670500                       # number of ReadReq MSHR miss cycles
system.cpu.dcache.ReadReq_mshr_miss_latency::total   7072670500                       # number of ReadReq MSHR miss cycles
system.cpu.dcache.ReadReq_mshr_miss_rate::.cpu.data     0.010728                       # mshr miss rate for ReadReq accesses
system.cpu.dcache.ReadReq_mshr_miss_rate::total     0.010728                       # mshr miss rate for ReadReq accesses
system.cpu.dcache.ReadReq_avg_mshr_miss_latency::.cpu.data 16041.584637                       # average ReadReq mshr miss latency
system.cpu.dcache.ReadReq_avg_mshr_miss_latency::total 16041.584637                       # average ReadReq mshr miss latency
system.cpu.dcache.WriteReq_hits::.cpu.data     10606951                       # number of WriteReq hits
system.cpu.dcache.WriteReq_hits::total       10606951                       # number of WriteReq hits
system.cpu.dcache.WriteReq_misses::.cpu.data       343135                       # number of WriteReq misses
system.cpu.dcache.WriteReq_misses::total       343135                       # number of WriteReq misses
system.cpu.dcache.WriteReq_miss_latency::.cpu.data  12023988000                       # number of WriteReq miss cycles
system.cpu.dcache.WriteReq_miss_latency::total  12023988000                       # number of WriteReq miss cycles
system.cpu.dcache.WriteReq_accesses::.cpu.data     10950086                       # number of WriteReq accesses(hits+misses)
system.cpu.dcache.WriteReq_accesses::total     10950086                       # number of WriteReq accesses(hits+misses)
system.cpu.dcache.WriteReq_miss_rate::.cpu.data     0.031336                       # miss rate for WriteReq accesses
system.cpu.dcache.WriteReq_miss_rate::total     0.031336                       # miss rate for WriteReq accesses
system.cpu.dcache.WriteReq_avg_miss_latency::.cpu.data 35041.566730                       # average WriteReq miss latency
system.cpu.dcache.WriteReq_avg_miss_latency::total 35041.566730                       # average WriteReq miss latency
system.cpu.dcache.WriteReq_mshr_hits::.cpu.data        16543                       # number of WriteReq MSHR hits
system.cpu.dcache.WriteReq_mshr_hits::total        16543                       # number of WriteReq MSHR hits
system.cpu.dcache.WriteReq_mshr_misses::.cpu.data       326592                       # number of WriteReq MSHR misses
system.cpu.dcache.WriteReq_mshr_misses::total       326592                       # number of WriteReq MSHR misses
system.cpu.dcache.WriteReq_mshr_miss_latency::.cpu.data  10246424000                       # number of WriteReq MSHR miss cycles
system.cpu.dcache.WriteReq_mshr_miss_latency::total  10246424000                       # number of WriteReq MSHR miss cycles
system.cpu.dcache.WriteReq_mshr_miss_rate::.cpu.data     0.029826                       # mshr miss rate for WriteReq accesses
system.cpu.dcache.WriteReq_mshr_miss_rate::total     0.029826                       # mshr miss rate for WriteReq accesses
system.cpu.dcache.WriteReq_avg_mshr_miss_latency::.cpu.data 31373.775230                       # average WriteReq mshr miss latency
system.cpu.dcache.WriteReq_avg_mshr_miss_latency::total 31373.775230                       # average WriteReq mshr miss latency
system.cpu.dcache.SoftPFReq_hits::.cpu.data         1264                       # number of SoftPFReq hits
system.cpu.dcache.SoftPFReq_hits::total          1264                       # number of SoftPFReq hits
system.cpu.dcache.SoftPFReq_misses::.cpu.data         7157                       # number of SoftPFReq misses
system.cpu.dcache.SoftPFReq_misses::total         7157                       # number of SoftPFReq misses
system.cpu.dcache.SoftPFReq_accesses::.cpu.data         8421                       # number of SoftPFReq accesses(hits+misses)
system.cpu.dcache.SoftPFReq_accesses::total         8421                       # number of SoftPFReq accesses(hits+misses)
system.cpu.dcache.SoftPFReq_miss_rate::.cpu.data     0.849899                       # miss rate for SoftPFReq accesses
system.cpu.dcache.SoftPFReq_miss_rate::total     0.849899                       # miss rate for SoftPFReq accesses
system.cpu.dcache.SoftPFReq_mshr_misses::.cpu.data         1980                       # number of SoftPFReq MSHR misses
system.cpu.dcache.SoftPFReq_mshr_misses::total         1980                       # number of SoftPFReq MSHR misses
system.cpu.dcache.SoftPFReq_mshr_miss_latency::.cpu.data    178392000                       # number of SoftPFReq MSHR miss cycles
system.cpu.dcache.SoftPFReq_mshr_miss_latency::total    178392000                       # number of SoftPFReq MSHR miss cycles
system.cpu.dcache.SoftPFReq_mshr_miss_rate::.cpu.data     0.235126                       # mshr miss rate for SoftPFReq accesses
system.cpu.dcache.SoftPFReq_mshr_miss_rate::total     0.235126                       # mshr miss rate for SoftPFReq accesses
system.cpu.dcache.SoftPFReq_avg_mshr_miss_latency::.cpu.data 90096.969697                       # average SoftPFReq mshr miss latency
system.cpu.dcache.SoftPFReq_avg_mshr_miss_latency::total 90096.969697                       # average SoftPFReq mshr miss latency
system.cpu.dcache.LoadLockedReq_hits::.cpu.data           38                       # number of LoadLockedReq hits
system.cpu.dcache.LoadLockedReq_hits::total           38                       # number of LoadLockedReq hits
system.cpu.dcache.LoadLockedReq_accesses::.cpu.data           38                       # number of LoadLockedReq accesses(hits+misses)
system.cpu.dcache.LoadLockedReq_accesses::total           38                       # number of LoadLockedReq accesses(hits+misses)
system.cpu.dcache.StoreCondReq_hits::.cpu.data           38                       # number of StoreCondReq hits
system.cpu.dcache.StoreCondReq_hits::total           38                       # number of StoreCondReq hits
system.cpu.dcache.StoreCondReq_accesses::.cpu.data           38                       # number of StoreCondReq accesses(hits+misses)
system.cpu.dcache.StoreCondReq_accesses::total           38                       # number of StoreCondReq accesses(hits+misses)
system.cpu.dcache.tags.pwrStateResidencyTicks::UNDEFINED  82444607500                       # Cumulative time (in ticks) in various power states
system.cpu.dcache.tags.tagsinuse           251.998360                       # Cycle average of tags in use
system.cpu.dcache.tags.total_refs            52033762                       # Total number of references to valid blocks.
system.cpu.dcache.tags.sampled_refs            769467                       # Sample count of references to valid blocks.
system.cpu.dcache.tags.avg_refs             67.623124                       # Average number of references to valid blocks.
system.cpu.dcache.tags.warmup_cycle            210500                       # Cycle when the warmup percentage was hit.
system.cpu.dcache.tags.occ_blocks::.cpu.data   251.998360                       # Average occupied blocks per requestor
system.cpu.dcache.tags.occ_percent::.cpu.data     0.984369                       # Average percentage of cache occupancy
system.cpu.dcache.tags.occ_percent::total     0.984369                       # Average percentage of cache occupancy
system.cpu.dcache.tags.occ_task_id_blocks::1024          256                       # Occupied blocks per task id
system.cpu.dcache.tags.age_task_id_blocks_1024::0          190                       # Occupied blocks per task id
system.cpu.dcache.tags.age_task_id_blocks_1024::1           65                       # Occupied blocks per task id
system.cpu.dcache.tags.age_task_id_blocks_1024::2            1                       # Occupied blocks per task id
system.cpu.dcache.tags.occ_task_id_percent::1024            1                       # Percentage of cache occupancy per task id
system.cpu.dcache.tags.tag_accesses         104884391                       # Number of tag accesses
system.cpu.dcache.tags.data_accesses        104884391                       # Number of data accesses
system.cpu.itb.walker.pwrStateResidencyTicks::UNDEFINED  82444607500                       # Cumulative time (in ticks) in various power states
system.cpu.itb.stage2_mmu.stage2_tlb.walker.pwrStateResidencyTicks::UNDEFINED  82444607500                       # Cumulative time (in ticks) in various power states

---------- End Simulation Statistics   ----------
