
---------- Begin Simulation Statistics ----------
final_tick                               100652339000                       # Number of ticks from beginning of simulation (restored from checkpoints and never reset)
host_inst_rate                                 487487                       # Simulator instruction rate (inst/s)
host_mem_usage                                 684548                       # Number of bytes of host memory used
host_op_rate                                   487505                       # Simulator op (including micro ops) rate (op/s)
host_seconds                                   205.13                       # Real time elapsed on the host
host_tick_rate                              490666862                       # Simulator tick rate (ticks/s)
sim_freq                                 1000000000000                       # Frequency of simulated ticks
sim_insts                                   100000000                       # Number of instructions simulated
sim_ops                                     100003637                       # Number of ops (including micro ops) simulated
sim_seconds                                  0.100652                       # Number of seconds simulated
sim_ticks                                100652339000                       # Number of ticks simulated
system.cpu.branchPred.BTBCorrect                    0                       # Number of correct BTB predictions (this stat may not work properly.
system.cpu.branchPred.BTBHitPct             99.493780                       # BTB Hit Percentage
system.cpu.branchPred.BTBHits                  596900                       # Number of BTB hits
system.cpu.branchPred.BTBLookups               599937                       # Number of BTB lookups
system.cpu.branchPred.RASInCorrect                  7                       # Number of incorrect RAS predictions.
system.cpu.branchPred.condIncorrect               865                       # Number of conditional branches incorrect
system.cpu.branchPred.condPredicted            600004                       # Number of conditional branches predicted
system.cpu.branchPred.indirectHits                167                       # Number of indirect target hits.
system.cpu.branchPred.indirectLookups             411                       # Number of indirect predictor lookups.
system.cpu.branchPred.indirectMisses              244                       # Number of indirect misses.
system.cpu.branchPred.lookups                  602202                       # Number of BP lookups
system.cpu.branchPred.usedRAS                     609                       # Number of times the RAS was used to get a target.
system.cpu.branchPredindirectMispredicted          108                       # Number of mispredicted indirect branches.
system.cpu.committedInsts                   100000000                       # Number of instructions committed
system.cpu.committedOps                     100003637                       # Number of ops (including micro ops) committed
system.cpu.cpi                               2.013047                       # CPI: cycles per instruction
system.cpu.discardedOps                          2700                       # Number of ops (including micro ops) which were discarded before commit
system.cpu.dtb.accesses                             0                       # DTB accesses
system.cpu.dtb.align_faults                         0                       # Number of TLB faults due to alignment restrictions
system.cpu.dtb.domain_faults                        0                       # Number of TLB faults due to domain restrictions
system.cpu.dtb.flush_entries                        0                       # Number of entries that have been flushed from TLB
system.cpu.dtb.flush_tlb                            0                       # Number of times complete TLB was flushed
system.cpu.dtb.flush_tlb_asid                       0                       # Number of times TLB was flushed by ASID
system.cpu.dtb.flush_tlb_mva                        0                       # Number of times TLB was flushed by MVA
system.cpu.dtb.flush_tlb_mva_asid                   0                       # Number of times TLB was flushed by MVA & ASID
system.cpu.dtb.hits                                 0                       # DTB hits
system.cpu.dtb.inst_accesses                        0                       # ITB inst accesses
system.cpu.dtb.inst_hits                            0                       # ITB inst hits
system.cpu.dtb.inst_misses                          0                       # ITB inst misses
system.cpu.dtb.misses                               0                       # DTB misses
system.cpu.dtb.perms_faults                         0                       # Number of TLB faults due to permissions restrictions
system.cpu.dtb.prefetch_faults                      0                       # Number of TLB faults due to prefetch
system.cpu.dtb.read_accesses                        0                       # DTB read accesses
system.cpu.dtb.read_hits                            0                       # DTB read hits
system.cpu.dtb.read_misses                          0                       # DTB read misses
system.cpu.dtb.stage2_mmu.stage2_tlb.accesses            0                       # DTB accesses
system.cpu.dtb.stage2_mmu.stage2_tlb.align_faults            0                       # Number of TLB faults due to alignment restrictions
system.cpu.dtb.stage2_mmu.stage2_tlb.domain_faults            0                       # Number of TLB faults due to domain restrictions
system.cpu.dtb.stage2_mmu.stage2_tlb.flush_entries            0                       # Number of entries that have been flushed from TLB
system.cpu.dtb.stage2_mmu.stage2_tlb.flush_tlb            0                       # Number of times complete TLB was flushed
system.cpu.dtb.stage2_mmu.stage2_tlb.flush_tlb_asid            0                       # Number of times TLB was flushed by ASID
system.cpu.dtb.stage2_mmu.stage2_tlb.flush_tlb_mva            0                       # Number of times TLB was flushed by MVA
system.cpu.dtb.stage2_mmu.stage2_tlb.flush_tlb_mva_asid            0                       # Number of times TLB was flushed by MVA & ASID
system.cpu.dtb.stage2_mmu.stage2_tlb.hits            0                       # DTB hits
system.cpu.dtb.stage2_mmu.stage2_tlb.inst_accesses            0                       # ITB inst accesses
system.cpu.dtb.stage2_mmu.stage2_tlb.inst_hits            0                       # ITB inst hits
system.cpu.dtb.stage2_mmu.stage2_tlb.inst_misses            0                       # ITB inst misses
system.cpu.dtb.stage2_mmu.stage2_tlb.misses            0                       # DTB misses
system.cpu.dtb.stage2_mmu.stage2_tlb.perms_faults            0                       # Number of TLB faults due to permissions restrictions
system.cpu.dtb.stage2_mmu.stage2_tlb.prefetch_faults            0                       # Number of TLB faults due to prefetch
system.cpu.dtb.stage2_mmu.stage2_tlb.read_accesses            0                       # DTB read accesses
system.cpu.dtb.stage2_mmu.stage2_tlb.read_hits            0                       # DTB read hits
system.cpu.dtb.stage2_mmu.stage2_tlb.read_misses            0                       # DTB read misses
system.cpu.dtb.stage2_mmu.stage2_tlb.walker.walkRequestOrigin_Requested::Data            0                       # Table walker requests started/completed, data/inst
system.cpu.dtb.stage2_mmu.stage2_tlb.walker.walkRequestOrigin_Requested::Inst            0                       # Table walker requests started/completed, data/inst
system.cpu.dtb.stage2_mmu.stage2_tlb.walker.walkRequestOrigin_Requested::total            0                       # Table walker requests started/completed, data/inst
system.cpu.dtb.stage2_mmu.stage2_tlb.walker.walkRequestOrigin_Completed::Data            0                       # Table walker requests started/completed, data/inst
system.cpu.dtb.stage2_mmu.stage2_tlb.walker.walkRequestOrigin_Completed::Inst            0                       # Table walker requests started/completed, data/inst
system.cpu.dtb.stage2_mmu.stage2_tlb.walker.walkRequestOrigin_Completed::total            0                       # Table walker requests started/completed, data/inst
system.cpu.dtb.stage2_mmu.stage2_tlb.walker.walkRequestOrigin::total            0                       # Table walker requests started/completed, data/inst
system.cpu.dtb.stage2_mmu.stage2_tlb.walker.walks            0                       # Table walker walks requested
system.cpu.dtb.stage2_mmu.stage2_tlb.write_accesses            0                       # DTB write accesses
system.cpu.dtb.stage2_mmu.stage2_tlb.write_hits            0                       # DTB write hits
system.cpu.dtb.stage2_mmu.stage2_tlb.write_misses            0                       # DTB write misses
system.cpu.dtb.walker.walkRequestOrigin_Requested::Data            0                       # Table walker requests started/completed, data/inst
system.cpu.dtb.walker.walkRequestOrigin_Requested::Inst            0                       # Table walker requests started/completed, data/inst
system.cpu.dtb.walker.walkRequestOrigin_Requested::total            0                       # Table walker requests started/completed, data/inst
system.cpu.dtb.walker.walkRequestOrigin_Completed::Data            0                       # Table walker requests started/completed, data/inst
system.cpu.dtb.walker.walkRequestOrigin_Completed::Inst            0                       # Table walker requests started/completed, data/inst
system.cpu.dtb.walker.walkRequestOrigin_Completed::total            0                       # Table walker requests started/completed, data/inst
system.cpu.dtb.walker.walkRequestOrigin::total            0                       # Table walker requests started/completed, data/inst
system.cpu.dtb.walker.walks                         0                       # Table walker walks requested
system.cpu.dtb.write_accesses                       0                       # DTB write accesses
system.cpu.dtb.write_hits                           0                       # DTB write hits
system.cpu.dtb.write_misses                         0                       # DTB write misses
system.cpu.fetch2.amo_instructions                  0                       # Number of memory atomic instructions successfully decoded
system.cpu.fetch2.fp_instructions                   0                       # Number of floating point instructions successfully decoded
system.cpu.fetch2.int_instructions           49412146                       # Number of integer instructions successfully decoded
system.cpu.fetch2.load_instructions          36901163                       # Number of memory load instructions successfully decoded
system.cpu.fetch2.store_instructions         13094556                       # Number of memory store instructions successfully decoded
system.cpu.fetch2.vec_instructions                  0                       # Number of SIMD instructions successfully decoded
system.cpu.idleCycles                        87641582                       # Total number of cycles that the object has spent stopped
system.cpu.ipc                               0.496759                       # IPC: instructions per cycle
system.cpu.itb.accesses                             0                       # DTB accesses
system.cpu.itb.align_faults                         0                       # Number of TLB faults due to alignment restrictions
system.cpu.itb.domain_faults                        0                       # Number of TLB faults due to domain restrictions
system.cpu.itb.flush_entries                        0                       # Number of entries that have been flushed from TLB
system.cpu.itb.flush_tlb                            0                       # Number of times complete TLB was flushed
system.cpu.itb.flush_tlb_asid                       0                       # Number of times TLB was flushed by ASID
system.cpu.itb.flush_tlb_mva                        0                       # Number of times TLB was flushed by MVA
system.cpu.itb.flush_tlb_mva_asid                   0                       # Number of times TLB was flushed by MVA & ASID
system.cpu.itb.hits                                 0                       # DTB hits
system.cpu.itb.inst_accesses                        0                       # ITB inst accesses
system.cpu.itb.inst_hits                            0                       # ITB inst hits
system.cpu.itb.inst_misses                          0                       # ITB inst misses
system.cpu.itb.misses                               0                       # DTB misses
system.cpu.itb.perms_faults                         0                       # Number of TLB faults due to permissions restrictions
system.cpu.itb.prefetch_faults                      0                       # Number of TLB faults due to prefetch
system.cpu.itb.read_accesses                        0                       # DTB read accesses
system.cpu.itb.read_hits                            0                       # DTB read hits
system.cpu.itb.read_misses                          0                       # DTB read misses
system.cpu.itb.stage2_mmu.stage2_tlb.accesses            0                       # DTB accesses
system.cpu.itb.stage2_mmu.stage2_tlb.align_faults            0                       # Number of TLB faults due to alignment restrictions
system.cpu.itb.stage2_mmu.stage2_tlb.domain_faults            0                       # Number of TLB faults due to domain restrictions
system.cpu.itb.stage2_mmu.stage2_tlb.flush_entries            0                       # Number of entries that have been flushed from TLB
system.cpu.itb.stage2_mmu.stage2_tlb.flush_tlb            0                       # Number of times complete TLB was flushed
system.cpu.itb.stage2_mmu.stage2_tlb.flush_tlb_asid            0                       # Number of times TLB was flushed by ASID
system.cpu.itb.stage2_mmu.stage2_tlb.flush_tlb_mva            0                       # Number of times TLB was flushed by MVA
system.cpu.itb.stage2_mmu.stage2_tlb.flush_tlb_mva_asid            0                       # Number of times TLB was flushed by MVA & ASID
system.cpu.itb.stage2_mmu.stage2_tlb.hits            0                       # DTB hits
system.cpu.itb.stage2_mmu.stage2_tlb.inst_accesses            0                       # ITB inst accesses
system.cpu.itb.stage2_mmu.stage2_tlb.inst_hits            0                       # ITB inst hits
system.cpu.itb.stage2_mmu.stage2_tlb.inst_misses            0                       # ITB inst misses
system.cpu.itb.stage2_mmu.stage2_tlb.misses            0                       # DTB misses
system.cpu.itb.stage2_mmu.stage2_tlb.perms_faults            0                       # Number of TLB faults due to permissions restrictions
system.cpu.itb.stage2_mmu.stage2_tlb.prefetch_faults            0                       # Number of TLB faults due to prefetch
system.cpu.itb.stage2_mmu.stage2_tlb.read_accesses            0                       # DTB read accesses
system.cpu.itb.stage2_mmu.stage2_tlb.read_hits            0                       # DTB read hits
system.cpu.itb.stage2_mmu.stage2_tlb.read_misses            0                       # DTB read misses
system.cpu.itb.stage2_mmu.stage2_tlb.walker.walkRequestOrigin_Requested::Data            0                       # Table walker requests started/completed, data/inst
system.cpu.itb.stage2_mmu.stage2_tlb.walker.walkRequestOrigin_Requested::Inst            0                       # Table walker requests started/completed, data/inst
system.cpu.itb.stage2_mmu.stage2_tlb.walker.walkRequestOrigin_Requested::total            0                       # Table walker requests started/completed, data/inst
system.cpu.itb.stage2_mmu.stage2_tlb.walker.walkRequestOrigin_Completed::Data            0                       # Table walker requests started/completed, data/inst
system.cpu.itb.stage2_mmu.stage2_tlb.walker.walkRequestOrigin_Completed::Inst            0                       # Table walker requests started/completed, data/inst
system.cpu.itb.stage2_mmu.stage2_tlb.walker.walkRequestOrigin_Completed::total            0                       # Table walker requests started/completed, data/inst
system.cpu.itb.stage2_mmu.stage2_tlb.walker.walkRequestOrigin::total            0                       # Table walker requests started/completed, data/inst
system.cpu.itb.stage2_mmu.stage2_tlb.walker.walks            0                       # Table walker walks requested
system.cpu.itb.stage2_mmu.stage2_tlb.write_accesses            0                       # DTB write accesses
system.cpu.itb.stage2_mmu.stage2_tlb.write_hits            0                       # DTB write hits
system.cpu.itb.stage2_mmu.stage2_tlb.write_misses            0                       # DTB write misses
system.cpu.itb.walker.walkRequestOrigin_Requested::Data            0                       # Table walker requests started/completed, data/inst
system.cpu.itb.walker.walkRequestOrigin_Requested::Inst            0                       # Table walker requests started/completed, data/inst
system.cpu.itb.walker.walkRequestOrigin_Requested::total            0                       # Table walker requests started/completed, data/inst
system.cpu.itb.walker.walkRequestOrigin_Completed::Data            0                       # Table walker requests started/completed, data/inst
system.cpu.itb.walker.walkRequestOrigin_Completed::Inst            0                       # Table walker requests started/completed, data/inst
system.cpu.itb.walker.walkRequestOrigin_Completed::total            0                       # Table walker requests started/completed, data/inst
system.cpu.itb.walker.walkRequestOrigin::total            0                       # Table walker requests started/completed, data/inst
system.cpu.itb.walker.walks                         0                       # Table walker walks requested
system.cpu.itb.write_accesses                       0                       # DTB write accesses
system.cpu.itb.write_hits                           0                       # DTB write hits
system.cpu.itb.write_misses                         0                       # DTB write misses
system.cpu.numCycles                        201304678                       # number of cpu cycles simulated
system.cpu.numFetchSuspends                         0                       # Number of times Execute suspended instruction fetching
system.cpu.numWorkItemsCompleted                    0                       # number of work items this cpu completed
system.cpu.numWorkItemsStarted                      0                       # number of work items this cpu started
system.cpu.op_class_0::No_OpClass                   0      0.00%      0.00% # Class of committed instruction
system.cpu.op_class_0::IntAlu                50006957     50.01%     50.01% # Class of committed instruction
system.cpu.op_class_0::IntMult                     85      0.00%     50.01% # Class of committed instruction
system.cpu.op_class_0::IntDiv                       0      0.00%     50.01% # Class of committed instruction
system.cpu.op_class_0::FloatAdd                     0      0.00%     50.01% # Class of committed instruction
system.cpu.op_class_0::FloatCmp                     0      0.00%     50.01% # Class of committed instruction
system.cpu.op_class_0::FloatCvt                     0      0.00%     50.01% # Class of committed instruction
system.cpu.op_class_0::FloatMult                    0      0.00%     50.01% # Class of committed instruction
system.cpu.op_class_0::FloatMultAcc                 0      0.00%     50.01% # Class of committed instruction
system.cpu.op_class_0::FloatDiv                     0      0.00%     50.01% # Class of committed instruction
system.cpu.op_class_0::FloatMisc                    0      0.00%     50.01% # Class of committed instruction
system.cpu.op_class_0::FloatSqrt                    0      0.00%     50.01% # Class of committed instruction
system.cpu.op_class_0::SimdAdd                      0      0.00%     50.01% # Class of committed instruction
system.cpu.op_class_0::SimdAddAcc                   0      0.00%     50.01% # Class of committed instruction
system.cpu.op_class_0::SimdAlu                      0      0.00%     50.01% # Class of committed instruction
system.cpu.op_class_0::SimdCmp                      0      0.00%     50.01% # Class of committed instruction
system.cpu.op_class_0::SimdCvt                      0      0.00%     50.01% # Class of committed instruction
system.cpu.op_class_0::SimdMisc                     0      0.00%     50.01% # Class of committed instruction
system.cpu.op_class_0::SimdMult                     0      0.00%     50.01% # Class of committed instruction
system.cpu.op_class_0::SimdMultAcc                  0      0.00%     50.01% # Class of committed instruction
system.cpu.op_class_0::SimdShift                    0      0.00%     50.01% # Class of committed instruction
system.cpu.op_class_0::SimdShiftAcc                 0      0.00%     50.01% # Class of committed instruction
system.cpu.op_class_0::SimdDiv                      0      0.00%     50.01% # Class of committed instruction
system.cpu.op_class_0::SimdSqrt                     0      0.00%     50.01% # Class of committed instruction
system.cpu.op_class_0::SimdFloatAdd                 0      0.00%     50.01% # Class of committed instruction
system.cpu.op_class_0::SimdFloatAlu                 0      0.00%     50.01% # Class of committed instruction
system.cpu.op_class_0::SimdFloatCmp                 2      0.00%     50.01% # Class of committed instruction
system.cpu.op_class_0::SimdFloatCvt                 0      0.00%     50.01% # Class of committed instruction
system.cpu.op_class_0::SimdFloatDiv                 0      0.00%     50.01% # Class of committed instruction
system.cpu.op_class_0::SimdFloatMisc               22      0.00%     50.01% # Class of committed instruction
system.cpu.op_class_0::SimdFloatMult                0      0.00%     50.01% # Class of committed instruction
system.cpu.op_class_0::SimdFloatMultAcc             0      0.00%     50.01% # Class of committed instruction
system.cpu.op_class_0::SimdFloatSqrt                0      0.00%     50.01% # Class of committed instruction
system.cpu.op_class_0::SimdReduceAdd                0      0.00%     50.01% # Class of committed instruction
system.cpu.op_class_0::SimdReduceAlu                0      0.00%     50.01% # Class of committed instruction
system.cpu.op_class_0::SimdReduceCmp                0      0.00%     50.01% # Class of committed instruction
system.cpu.op_class_0::SimdFloatReduceAdd            0      0.00%     50.01% # Class of committed instruction
system.cpu.op_class_0::SimdFloatReduceCmp            0      0.00%     50.01% # Class of committed instruction
system.cpu.op_class_0::SimdAes                      0      0.00%     50.01% # Class of committed instruction
system.cpu.op_class_0::SimdAesMix                   0      0.00%     50.01% # Class of committed instruction
system.cpu.op_class_0::SimdSha1Hash                 0      0.00%     50.01% # Class of committed instruction
system.cpu.op_class_0::SimdSha1Hash2                0      0.00%     50.01% # Class of committed instruction
system.cpu.op_class_0::SimdSha256Hash               0      0.00%     50.01% # Class of committed instruction
system.cpu.op_class_0::SimdSha256Hash2              0      0.00%     50.01% # Class of committed instruction
system.cpu.op_class_0::SimdShaSigma2                0      0.00%     50.01% # Class of committed instruction
system.cpu.op_class_0::SimdShaSigma3                0      0.00%     50.01% # Class of committed instruction
system.cpu.op_class_0::SimdPredAlu                  0      0.00%     50.01% # Class of committed instruction
system.cpu.op_class_0::MemRead               36900878     36.90%     86.90% # Class of committed instruction
system.cpu.op_class_0::MemWrite              13095693     13.10%    100.00% # Class of committed instruction
system.cpu.op_class_0::FloatMemRead                 0      0.00%    100.00% # Class of committed instruction
system.cpu.op_class_0::FloatMemWrite                0      0.00%    100.00% # Class of committed instruction
system.cpu.op_class_0::IprAccess                    0      0.00%    100.00% # Class of committed instruction
system.cpu.op_class_0::InstPrefetch                 0      0.00%    100.00% # Class of committed instruction
system.cpu.op_class_0::total                100003637                       # Class of committed instruction
system.cpu.tickCycles                       113663096                       # Number of cycles that the object actually ticked
system.cpu.workload.numSyscalls                    18                       # Number of system calls
system.membus.snoop_filter.hit_multi_requests            0                       # Number of requests hitting in the snoop filter with multiple (>1) holders of the requested data.
system.membus.snoop_filter.hit_multi_snoops            0                       # Number of snoops hitting in the snoop filter with multiple (>1) holders of the requested data.
system.membus.snoop_filter.hit_single_requests       356134                       # Number of requests hitting in the snoop filter with a single holder of the requested data.
system.membus.snoop_filter.hit_single_snoops            0                       # Number of snoops hitting in the snoop filter with a single holder of the requested data.
system.membus.snoop_filter.tot_requests        728392                       # Total number of requests made to the snoop filter.
system.membus.snoop_filter.tot_snoops               0                       # Total number of snoops made to the snoop filter.
system.tol2bus.snoop_filter.hit_multi_requests        11660                       # Number of requests hitting in the snoop filter with multiple (>1) holders of the requested data.
system.tol2bus.snoop_filter.hit_multi_snoops          374                       # Number of snoops hitting in the snoop filter with multiple (>1) holders of the requested data.
system.tol2bus.snoop_filter.hit_single_requests       416848                       # Number of requests hitting in the snoop filter with a single holder of the requested data.
system.tol2bus.snoop_filter.hit_single_snoops         1192                       # Number of snoops hitting in the snoop filter with a single holder of the requested data.
system.tol2bus.snoop_filter.tot_requests       834321                       # Total number of requests made to the snoop filter.
system.tol2bus.snoop_filter.tot_snoops           1566                       # Total number of snoops made to the snoop filter.
system.membus.pwrStateResidencyTicks::UNDEFINED 100652339000                       # Cumulative time (in ticks) in various power states
system.membus.trans_dist::ReadResp                660                       # Transaction distribution
system.membus.trans_dist::WritebackDirty       355600                       # Transaction distribution
system.membus.trans_dist::CleanEvict              160                       # Transaction distribution
system.membus.trans_dist::ReadExReq            371972                       # Transaction distribution
system.membus.trans_dist::ReadExResp           371972                       # Transaction distribution
system.membus.trans_dist::ReadSharedReq           660                       # Transaction distribution
system.membus.pkt_count_system.l2.mem_side::system.mem_ctrls.port      1101024                       # Packet count per connected master and slave (bytes)
system.membus.pkt_count::total                1101024                       # Packet count per connected master and slave (bytes)
system.membus.pkt_size_system.l2.mem_side::system.mem_ctrls.port    186427392                       # Cumulative packet size per connected master and slave (bytes)
system.membus.pkt_size::total               186427392                       # Cumulative packet size per connected master and slave (bytes)
system.membus.snoops                                0                       # Total snoops (count)
system.membus.snoopTraffic                          0                       # Total snoop traffic (bytes)
system.membus.snoop_fanout::samples            372632                       # Request fanout histogram
system.membus.snoop_fanout::mean                    0                       # Request fanout histogram
system.membus.snoop_fanout::stdev                   0                       # Request fanout histogram
system.membus.snoop_fanout::underflows              0      0.00%      0.00% # Request fanout histogram
system.membus.snoop_fanout::0                  372632    100.00%    100.00% # Request fanout histogram
system.membus.snoop_fanout::1                       0      0.00%    100.00% # Request fanout histogram
system.membus.snoop_fanout::overflows               0      0.00%    100.00% # Request fanout histogram
system.membus.snoop_fanout::min_value               0                       # Request fanout histogram
system.membus.snoop_fanout::max_value               0                       # Request fanout histogram
system.membus.snoop_fanout::total              372632                       # Request fanout histogram
system.membus.respLayer1.occupancy         6466970750                       # Layer occupancy (ticks)
system.membus.respLayer1.utilization              6.4                       # Layer utilization (%)
system.membus.reqLayer0.occupancy          6529748000                       # Layer occupancy (ticks)
system.membus.reqLayer0.utilization               6.5                       # Layer utilization (%)
system.tol2bus.pwrStateResidencyTicks::UNDEFINED 100652339000                       # Cumulative time (in ticks) in various power states
system.tol2bus.trans_dist::ReadResp             23721                       # Transaction distribution
system.tol2bus.trans_dist::WritebackDirty       760473                       # Transaction distribution
system.tol2bus.trans_dist::WritebackClean          286                       # Transaction distribution
system.tol2bus.trans_dist::CleanEvict           13414                       # Transaction distribution
system.tol2bus.trans_dist::ReadExReq           393753                       # Transaction distribution
system.tol2bus.trans_dist::ReadExResp          393753                       # Transaction distribution
system.tol2bus.trans_dist::ReadCleanReq           401                       # Transaction distribution
system.tol2bus.trans_dist::ReadSharedReq        23320                       # Transaction distribution
system.tol2bus.pkt_count_system.cpu.icache.mem_side::system.l2.cpu_side         1088                       # Packet count per connected master and slave (bytes)
system.tol2bus.pkt_count_system.cpu.dcache.mem_side::system.l2.cpu_side      1250707                       # Packet count per connected master and slave (bytes)
system.tol2bus.pkt_count::total               1251795                       # Packet count per connected master and slave (bytes)
system.tol2bus.pkt_size_system.cpu.icache.mem_side::system.l2.cpu_side       175872                       # Cumulative packet size per connected master and slave (bytes)
system.tol2bus.pkt_size_system.cpu.dcache.mem_side::system.l2.cpu_side    210418176                       # Cumulative packet size per connected master and slave (bytes)
system.tol2bus.pkt_size::total              210594048                       # Cumulative packet size per connected master and slave (bytes)
system.tol2bus.snoops                          357326                       # Total snoops (count)
system.tol2bus.snoopTraffic                  91033600                       # Total snoop traffic (bytes)
system.tol2bus.snoop_fanout::samples           774800                       # Request fanout histogram
system.tol2bus.snoop_fanout::mean            0.017554                       # Request fanout histogram
system.tol2bus.snoop_fanout::stdev           0.134950                       # Request fanout histogram
system.tol2bus.snoop_fanout::underflows             0      0.00%      0.00% # Request fanout histogram
system.tol2bus.snoop_fanout::0                 761573     98.29%     98.29% # Request fanout histogram
system.tol2bus.snoop_fanout::1                  12853      1.66%     99.95% # Request fanout histogram
system.tol2bus.snoop_fanout::2                    374      0.05%    100.00% # Request fanout histogram
system.tol2bus.snoop_fanout::overflows              0      0.00%    100.00% # Request fanout histogram
system.tol2bus.snoop_fanout::min_value              0                       # Request fanout histogram
system.tol2bus.snoop_fanout::max_value              2                       # Request fanout histogram
system.tol2bus.snoop_fanout::total             774800                       # Request fanout histogram
system.tol2bus.reqLayer0.occupancy         2037796500                       # Layer occupancy (ticks)
system.tol2bus.reqLayer0.utilization              2.0                       # Layer utilization (%)
system.tol2bus.respLayer1.occupancy        1876829498                       # Layer occupancy (ticks)
system.tol2bus.respLayer1.utilization             1.9                       # Layer utilization (%)
system.tol2bus.respLayer0.occupancy           1804999                       # Layer occupancy (ticks)
system.tol2bus.respLayer0.utilization             0.0                       # Layer utilization (%)
system.voltage_domain.voltage                       1                       # Voltage in Volts
system.clk_domain.clock                          1000                       # Clock period in ticks
system.l2.pwrStateResidencyTicks::UNDEFINED 100652339000                       # Cumulative time (in ticks) in various power states
system.l2.demand_hits::.cpu.inst                  171                       # number of demand (read+write) hits
system.l2.demand_hits::.cpu.data                44668                       # number of demand (read+write) hits
system.l2.demand_hits::total                    44839                       # number of demand (read+write) hits
system.l2.overall_hits::.cpu.inst                 171                       # number of overall hits
system.l2.overall_hits::.cpu.data               44668                       # number of overall hits
system.l2.overall_hits::total                   44839                       # number of overall hits
system.l2.demand_misses::.cpu.inst                230                       # number of demand (read+write) misses
system.l2.demand_misses::.cpu.data             372405                       # number of demand (read+write) misses
system.l2.demand_misses::total                 372635                       # number of demand (read+write) misses
system.l2.overall_misses::.cpu.inst               230                       # number of overall misses
system.l2.overall_misses::.cpu.data            372405                       # number of overall misses
system.l2.overall_misses::total                372635                       # number of overall misses
system.l2.demand_miss_latency::.cpu.inst     21388500                       # number of demand (read+write) miss cycles
system.l2.demand_miss_latency::.cpu.data  39283957000                       # number of demand (read+write) miss cycles
system.l2.demand_miss_latency::total      39305345500                       # number of demand (read+write) miss cycles
system.l2.overall_miss_latency::.cpu.inst     21388500                       # number of overall miss cycles
system.l2.overall_miss_latency::.cpu.data  39283957000                       # number of overall miss cycles
system.l2.overall_miss_latency::total     39305345500                       # number of overall miss cycles
system.l2.demand_accesses::.cpu.inst              401                       # number of demand (read+write) accesses
system.l2.demand_accesses::.cpu.data           417073                       # number of demand (read+write) accesses
system.l2.demand_accesses::total               417474                       # number of demand (read+write) accesses
system.l2.overall_accesses::.cpu.inst             401                       # number of overall (read+write) accesses
system.l2.overall_accesses::.cpu.data          417073                       # number of overall (read+write) accesses
system.l2.overall_accesses::total              417474                       # number of overall (read+write) accesses
system.l2.demand_miss_rate::.cpu.inst        0.573566                       # miss rate for demand accesses
system.l2.demand_miss_rate::.cpu.data        0.892901                       # miss rate for demand accesses
system.l2.demand_miss_rate::total            0.892595                       # miss rate for demand accesses
system.l2.overall_miss_rate::.cpu.inst       0.573566                       # miss rate for overall accesses
system.l2.overall_miss_rate::.cpu.data       0.892901                       # miss rate for overall accesses
system.l2.overall_miss_rate::total           0.892595                       # miss rate for overall accesses
system.l2.demand_avg_miss_latency::.cpu.inst 92993.478261                       # average overall miss latency
system.l2.demand_avg_miss_latency::.cpu.data 105487.190022                       # average overall miss latency
system.l2.demand_avg_miss_latency::total 105479.478578                       # average overall miss latency
system.l2.overall_avg_miss_latency::.cpu.inst 92993.478261                       # average overall miss latency
system.l2.overall_avg_miss_latency::.cpu.data 105487.190022                       # average overall miss latency
system.l2.overall_avg_miss_latency::total 105479.478578                       # average overall miss latency
system.l2.blocked_cycles::no_mshrs                  0                       # number of cycles access was blocked
system.l2.blocked_cycles::no_targets                0                       # number of cycles access was blocked
system.l2.blocked::no_mshrs                         0                       # number of cycles access was blocked
system.l2.blocked::no_targets                       0                       # number of cycles access was blocked
system.l2.avg_blocked_cycles::no_mshrs            nan                       # average number of cycles each access was blocked
system.l2.avg_blocked_cycles::no_targets          nan                       # average number of cycles each access was blocked
system.l2.writebacks::.writebacks              355600                       # number of writebacks
system.l2.writebacks::total                    355600                       # number of writebacks
system.l2.demand_mshr_hits::.cpu.inst               1                       # number of demand (read+write) MSHR hits
system.l2.demand_mshr_hits::.cpu.data               2                       # number of demand (read+write) MSHR hits
system.l2.demand_mshr_hits::total                   3                       # number of demand (read+write) MSHR hits
system.l2.overall_mshr_hits::.cpu.inst              1                       # number of overall MSHR hits
system.l2.overall_mshr_hits::.cpu.data              2                       # number of overall MSHR hits
system.l2.overall_mshr_hits::total                  3                       # number of overall MSHR hits
system.l2.demand_mshr_misses::.cpu.inst           229                       # number of demand (read+write) MSHR misses
system.l2.demand_mshr_misses::.cpu.data        372403                       # number of demand (read+write) MSHR misses
system.l2.demand_mshr_misses::total            372632                       # number of demand (read+write) MSHR misses
system.l2.overall_mshr_misses::.cpu.inst          229                       # number of overall MSHR misses
system.l2.overall_mshr_misses::.cpu.data       372403                       # number of overall MSHR misses
system.l2.overall_mshr_misses::total           372632                       # number of overall MSHR misses
system.l2.demand_mshr_miss_latency::.cpu.inst     19017000                       # number of demand (read+write) MSHR miss cycles
system.l2.demand_mshr_miss_latency::.cpu.data  35559762500                       # number of demand (read+write) MSHR miss cycles
system.l2.demand_mshr_miss_latency::total  35578779500                       # number of demand (read+write) MSHR miss cycles
system.l2.overall_mshr_miss_latency::.cpu.inst     19017000                       # number of overall MSHR miss cycles
system.l2.overall_mshr_miss_latency::.cpu.data  35559762500                       # number of overall MSHR miss cycles
system.l2.overall_mshr_miss_latency::total  35578779500                       # number of overall MSHR miss cycles
system.l2.demand_mshr_miss_rate::.cpu.inst     0.571072                       # mshr miss rate for demand accesses
system.l2.demand_mshr_miss_rate::.cpu.data     0.892896                       # mshr miss rate for demand accesses
system.l2.demand_mshr_miss_rate::total       0.892587                       # mshr miss rate for demand accesses
system.l2.overall_mshr_miss_rate::.cpu.inst     0.571072                       # mshr miss rate for overall accesses
system.l2.overall_mshr_miss_rate::.cpu.data     0.892896                       # mshr miss rate for overall accesses
system.l2.overall_mshr_miss_rate::total      0.892587                       # mshr miss rate for overall accesses
system.l2.demand_avg_mshr_miss_latency::.cpu.inst 83043.668122                       # average overall mshr miss latency
system.l2.demand_avg_mshr_miss_latency::.cpu.data 95487.314818                       # average overall mshr miss latency
system.l2.demand_avg_mshr_miss_latency::total 95479.667608                       # average overall mshr miss latency
system.l2.overall_avg_mshr_miss_latency::.cpu.inst 83043.668122                       # average overall mshr miss latency
system.l2.overall_avg_mshr_miss_latency::.cpu.data 95487.314818                       # average overall mshr miss latency
system.l2.overall_avg_mshr_miss_latency::total 95479.667608                       # average overall mshr miss latency
system.l2.replacements                         357326                       # number of replacements
system.l2.WritebackDirty_hits::.writebacks       404873                       # number of WritebackDirty hits
system.l2.WritebackDirty_hits::total           404873                       # number of WritebackDirty hits
system.l2.WritebackDirty_accesses::.writebacks       404873                       # number of WritebackDirty accesses(hits+misses)
system.l2.WritebackDirty_accesses::total       404873                       # number of WritebackDirty accesses(hits+misses)
system.l2.WritebackClean_hits::.writebacks          256                       # number of WritebackClean hits
system.l2.WritebackClean_hits::total              256                       # number of WritebackClean hits
system.l2.WritebackClean_accesses::.writebacks          256                       # number of WritebackClean accesses(hits+misses)
system.l2.WritebackClean_accesses::total          256                       # number of WritebackClean accesses(hits+misses)
system.l2.ReadExReq_hits::.cpu.data             21781                       # number of ReadExReq hits
system.l2.ReadExReq_hits::total                 21781                       # number of ReadExReq hits
system.l2.ReadExReq_misses::.cpu.data          371972                       # number of ReadExReq misses
system.l2.ReadExReq_misses::total              371972                       # number of ReadExReq misses
system.l2.ReadExReq_miss_latency::.cpu.data  39238702500                       # number of ReadExReq miss cycles
system.l2.ReadExReq_miss_latency::total   39238702500                       # number of ReadExReq miss cycles
system.l2.ReadExReq_accesses::.cpu.data        393753                       # number of ReadExReq accesses(hits+misses)
system.l2.ReadExReq_accesses::total            393753                       # number of ReadExReq accesses(hits+misses)
system.l2.ReadExReq_miss_rate::.cpu.data     0.944684                       # miss rate for ReadExReq accesses
system.l2.ReadExReq_miss_rate::total         0.944684                       # miss rate for ReadExReq accesses
system.l2.ReadExReq_avg_miss_latency::.cpu.data 105488.323046                       # average ReadExReq miss latency
system.l2.ReadExReq_avg_miss_latency::total 105488.323046                       # average ReadExReq miss latency
system.l2.ReadExReq_mshr_misses::.cpu.data       371972                       # number of ReadExReq MSHR misses
system.l2.ReadExReq_mshr_misses::total         371972                       # number of ReadExReq MSHR misses
system.l2.ReadExReq_mshr_miss_latency::.cpu.data  35518982500                       # number of ReadExReq MSHR miss cycles
system.l2.ReadExReq_mshr_miss_latency::total  35518982500                       # number of ReadExReq MSHR miss cycles
system.l2.ReadExReq_mshr_miss_rate::.cpu.data     0.944684                       # mshr miss rate for ReadExReq accesses
system.l2.ReadExReq_mshr_miss_rate::total     0.944684                       # mshr miss rate for ReadExReq accesses
system.l2.ReadExReq_avg_mshr_miss_latency::.cpu.data 95488.323046                       # average ReadExReq mshr miss latency
system.l2.ReadExReq_avg_mshr_miss_latency::total 95488.323046                       # average ReadExReq mshr miss latency
system.l2.ReadCleanReq_hits::.cpu.inst            171                       # number of ReadCleanReq hits
system.l2.ReadCleanReq_hits::total                171                       # number of ReadCleanReq hits
system.l2.ReadCleanReq_misses::.cpu.inst          230                       # number of ReadCleanReq misses
system.l2.ReadCleanReq_misses::total              230                       # number of ReadCleanReq misses
system.l2.ReadCleanReq_miss_latency::.cpu.inst     21388500                       # number of ReadCleanReq miss cycles
system.l2.ReadCleanReq_miss_latency::total     21388500                       # number of ReadCleanReq miss cycles
system.l2.ReadCleanReq_accesses::.cpu.inst          401                       # number of ReadCleanReq accesses(hits+misses)
system.l2.ReadCleanReq_accesses::total            401                       # number of ReadCleanReq accesses(hits+misses)
system.l2.ReadCleanReq_miss_rate::.cpu.inst     0.573566                       # miss rate for ReadCleanReq accesses
system.l2.ReadCleanReq_miss_rate::total      0.573566                       # miss rate for ReadCleanReq accesses
system.l2.ReadCleanReq_avg_miss_latency::.cpu.inst 92993.478261                       # average ReadCleanReq miss latency
system.l2.ReadCleanReq_avg_miss_latency::total 92993.478261                       # average ReadCleanReq miss latency
system.l2.ReadCleanReq_mshr_hits::.cpu.inst            1                       # number of ReadCleanReq MSHR hits
system.l2.ReadCleanReq_mshr_hits::total             1                       # number of ReadCleanReq MSHR hits
system.l2.ReadCleanReq_mshr_misses::.cpu.inst          229                       # number of ReadCleanReq MSHR misses
system.l2.ReadCleanReq_mshr_misses::total          229                       # number of ReadCleanReq MSHR misses
system.l2.ReadCleanReq_mshr_miss_latency::.cpu.inst     19017000                       # number of ReadCleanReq MSHR miss cycles
system.l2.ReadCleanReq_mshr_miss_latency::total     19017000                       # number of ReadCleanReq MSHR miss cycles
system.l2.ReadCleanReq_mshr_miss_rate::.cpu.inst     0.571072                       # mshr miss rate for ReadCleanReq accesses
system.l2.ReadCleanReq_mshr_miss_rate::total     0.571072                       # mshr miss rate for ReadCleanReq accesses
system.l2.ReadCleanReq_avg_mshr_miss_latency::.cpu.inst 83043.668122                       # average ReadCleanReq mshr miss latency
system.l2.ReadCleanReq_avg_mshr_miss_latency::total 83043.668122                       # average ReadCleanReq mshr miss latency
system.l2.ReadSharedReq_hits::.cpu.data         22887                       # number of ReadSharedReq hits
system.l2.ReadSharedReq_hits::total             22887                       # number of ReadSharedReq hits
system.l2.ReadSharedReq_misses::.cpu.data          433                       # number of ReadSharedReq misses
system.l2.ReadSharedReq_misses::total             433                       # number of ReadSharedReq misses
system.l2.ReadSharedReq_miss_latency::.cpu.data     45254500                       # number of ReadSharedReq miss cycles
system.l2.ReadSharedReq_miss_latency::total     45254500                       # number of ReadSharedReq miss cycles
system.l2.ReadSharedReq_accesses::.cpu.data        23320                       # number of ReadSharedReq accesses(hits+misses)
system.l2.ReadSharedReq_accesses::total         23320                       # number of ReadSharedReq accesses(hits+misses)
system.l2.ReadSharedReq_miss_rate::.cpu.data     0.018568                       # miss rate for ReadSharedReq accesses
system.l2.ReadSharedReq_miss_rate::total     0.018568                       # miss rate for ReadSharedReq accesses
system.l2.ReadSharedReq_avg_miss_latency::.cpu.data 104513.856813                       # average ReadSharedReq miss latency
system.l2.ReadSharedReq_avg_miss_latency::total 104513.856813                       # average ReadSharedReq miss latency
system.l2.ReadSharedReq_mshr_hits::.cpu.data            2                       # number of ReadSharedReq MSHR hits
system.l2.ReadSharedReq_mshr_hits::total            2                       # number of ReadSharedReq MSHR hits
system.l2.ReadSharedReq_mshr_misses::.cpu.data          431                       # number of ReadSharedReq MSHR misses
system.l2.ReadSharedReq_mshr_misses::total          431                       # number of ReadSharedReq MSHR misses
system.l2.ReadSharedReq_mshr_miss_latency::.cpu.data     40780000                       # number of ReadSharedReq MSHR miss cycles
system.l2.ReadSharedReq_mshr_miss_latency::total     40780000                       # number of ReadSharedReq MSHR miss cycles
system.l2.ReadSharedReq_mshr_miss_rate::.cpu.data     0.018482                       # mshr miss rate for ReadSharedReq accesses
system.l2.ReadSharedReq_mshr_miss_rate::total     0.018482                       # mshr miss rate for ReadSharedReq accesses
system.l2.ReadSharedReq_avg_mshr_miss_latency::.cpu.data 94617.169374                       # average ReadSharedReq mshr miss latency
system.l2.ReadSharedReq_avg_mshr_miss_latency::total 94617.169374                       # average ReadSharedReq mshr miss latency
system.l2.tags.pwrStateResidencyTicks::UNDEFINED 100652339000                       # Cumulative time (in ticks) in various power states
system.l2.tags.tagsinuse                 16039.814177                       # Cycle average of tags in use
system.l2.tags.total_refs                      822658                       # Total number of references to valid blocks.
system.l2.tags.sampled_refs                    373710                       # Sample count of references to valid blocks.
system.l2.tags.avg_refs                      2.201327                       # Average number of references to valid blocks.
system.l2.tags.warmup_cycle                     92000                       # Cycle when the warmup percentage was hit.
system.l2.tags.occ_blocks::.writebacks       0.988959                       # Average occupied blocks per requestor
system.l2.tags.occ_blocks::.cpu.inst         8.841459                       # Average occupied blocks per requestor
system.l2.tags.occ_blocks::.cpu.data     16029.983759                       # Average occupied blocks per requestor
system.l2.tags.occ_percent::.writebacks      0.000060                       # Average percentage of cache occupancy
system.l2.tags.occ_percent::.cpu.inst        0.000540                       # Average percentage of cache occupancy
system.l2.tags.occ_percent::.cpu.data        0.978393                       # Average percentage of cache occupancy
system.l2.tags.occ_percent::total            0.978993                       # Average percentage of cache occupancy
system.l2.tags.occ_task_id_blocks::1024         16384                       # Occupied blocks per task id
system.l2.tags.age_task_id_blocks_1024::0           37                       # Occupied blocks per task id
system.l2.tags.age_task_id_blocks_1024::1          331                       # Occupied blocks per task id
system.l2.tags.age_task_id_blocks_1024::2         3323                       # Occupied blocks per task id
system.l2.tags.age_task_id_blocks_1024::3        12693                       # Occupied blocks per task id
system.l2.tags.occ_task_id_percent::1024            1                       # Percentage of cache occupancy per task id
system.l2.tags.tag_accesses                   1196371                       # Number of tag accesses
system.l2.tags.data_accesses                  1196371                       # Number of data accesses
system.cpu_voltage_domain.voltage                   1                       # Voltage in Volts
system.mem_ctrls.pwrStateResidencyTicks::UNDEFINED 100652339000                       # Cumulative time (in ticks) in various power states
system.mem_ctrls.bytes_read::.cpu.inst          58624                       # Number of bytes read from this memory
system.mem_ctrls.bytes_read::.cpu.data       95335168                       # Number of bytes read from this memory
system.mem_ctrls.bytes_read::total           95393792                       # Number of bytes read from this memory
system.mem_ctrls.bytes_inst_read::.cpu.inst        58624                       # Number of instructions bytes read from this memory
system.mem_ctrls.bytes_inst_read::total         58624                       # Number of instructions bytes read from this memory
system.mem_ctrls.bytes_written::.writebacks     91033600                       # Number of bytes written to this memory
system.mem_ctrls.bytes_written::total        91033600                       # Number of bytes written to this memory
system.mem_ctrls.num_reads::.cpu.inst             229                       # Number of read requests responded to by this memory
system.mem_ctrls.num_reads::.cpu.data          372403                       # Number of read requests responded to by this memory
system.mem_ctrls.num_reads::total              372632                       # Number of read requests responded to by this memory
system.mem_ctrls.num_writes::.writebacks       355600                       # Number of write requests responded to by this memory
system.mem_ctrls.num_writes::total             355600                       # Number of write requests responded to by this memory
system.mem_ctrls.bw_read::.cpu.inst            582441                       # Total read bandwidth from this memory (bytes/s)
system.mem_ctrls.bw_read::.cpu.data         947172902                       # Total read bandwidth from this memory (bytes/s)
system.mem_ctrls.bw_read::total             947755342                       # Total read bandwidth from this memory (bytes/s)
system.mem_ctrls.bw_inst_read::.cpu.inst       582441                       # Instruction read bandwidth from this memory (bytes/s)
system.mem_ctrls.bw_inst_read::total           582441                       # Instruction read bandwidth from this memory (bytes/s)
system.mem_ctrls.bw_write::.writebacks      904436011                       # Write bandwidth from this memory (bytes/s)
system.mem_ctrls.bw_write::total            904436011                       # Write bandwidth from this memory (bytes/s)
system.mem_ctrls.bw_total::.writebacks      904436011                       # Total bandwidth to/from this memory (bytes/s)
system.mem_ctrls.bw_total::.cpu.inst           582441                       # Total bandwidth to/from this memory (bytes/s)
system.mem_ctrls.bw_total::.cpu.data        947172902                       # Total bandwidth to/from this memory (bytes/s)
system.mem_ctrls.bw_total::total           1852191353                       # Total bandwidth to/from this memory (bytes/s)
system.mem_ctrls.avgPriority_.writebacks::samples   1422400.00                       # Average QoS priority value for accepted requests
system.mem_ctrls.avgPriority_.cpu.inst::samples       916.00                       # Average QoS priority value for accepted requests
system.mem_ctrls.avgPriority_.cpu.data::samples   1489612.00                       # Average QoS priority value for accepted requests
system.mem_ctrls.priorityMinLatency      0.000000018750                       # per QoS priority minimum request to response latency (s)
system.mem_ctrls.priorityMaxLatency      0.007254334750                       # per QoS priority maximum request to response latency (s)
system.mem_ctrls.numReadWriteTurnArounds        71297                       # Number of turnarounds from READ to WRITE
system.mem_ctrls.numWriteReadTurnArounds        71297                       # Number of turnarounds from WRITE to READ
system.mem_ctrls.numStayReadState             2240780                       # Number of times bus staying in READ state
system.mem_ctrls.numStayWriteState            1354569                       # Number of times bus staying in WRITE state
system.mem_ctrls.readReqs                      372632                       # Number of read requests accepted
system.mem_ctrls.writeReqs                     355600                       # Number of write requests accepted
system.mem_ctrls.readBursts                   1490528                       # Number of DRAM read bursts, including those serviced by the write queue
system.mem_ctrls.writeBursts                  1422400                       # Number of DRAM write bursts, including those merged in the write queue
system.mem_ctrls.servicedByWrQ                      0                       # Number of DRAM read bursts serviced by the write queue
system.mem_ctrls.mergedWrBursts                     0                       # Number of DRAM write bursts merged with an existing one
system.mem_ctrls.neitherReadNorWriteReqs            0                       # Number of requests that are neither read nor write
system.mem_ctrls.perBankRdBursts::0             94656                       # Per bank write bursts
system.mem_ctrls.perBankRdBursts::1             92964                       # Per bank write bursts
system.mem_ctrls.perBankRdBursts::2             93020                       # Per bank write bursts
system.mem_ctrls.perBankRdBursts::3             93016                       # Per bank write bursts
system.mem_ctrls.perBankRdBursts::4             93148                       # Per bank write bursts
system.mem_ctrls.perBankRdBursts::5             93100                       # Per bank write bursts
system.mem_ctrls.perBankRdBursts::6             93072                       # Per bank write bursts
system.mem_ctrls.perBankRdBursts::7             93088                       # Per bank write bursts
system.mem_ctrls.perBankRdBursts::8             93232                       # Per bank write bursts
system.mem_ctrls.perBankRdBursts::9             93100                       # Per bank write bursts
system.mem_ctrls.perBankRdBursts::10            93092                       # Per bank write bursts
system.mem_ctrls.perBankRdBursts::11            92980                       # Per bank write bursts
system.mem_ctrls.perBankRdBursts::12            93052                       # Per bank write bursts
system.mem_ctrls.perBankRdBursts::13            92984                       # Per bank write bursts
system.mem_ctrls.perBankRdBursts::14            92992                       # Per bank write bursts
system.mem_ctrls.perBankRdBursts::15            93032                       # Per bank write bursts
system.mem_ctrls.perBankWrBursts::0             88912                       # Per bank write bursts
system.mem_ctrls.perBankWrBursts::1             88864                       # Per bank write bursts
system.mem_ctrls.perBankWrBursts::2             88856                       # Per bank write bursts
system.mem_ctrls.perBankWrBursts::3             88904                       # Per bank write bursts
system.mem_ctrls.perBankWrBursts::4             88964                       # Per bank write bursts
system.mem_ctrls.perBankWrBursts::5             88960                       # Per bank write bursts
system.mem_ctrls.perBankWrBursts::6             88960                       # Per bank write bursts
system.mem_ctrls.perBankWrBursts::7             88960                       # Per bank write bursts
system.mem_ctrls.perBankWrBursts::8             88960                       # Per bank write bursts
system.mem_ctrls.perBankWrBursts::9             88960                       # Per bank write bursts
system.mem_ctrls.perBankWrBursts::10            88905                       # Per bank write bursts
system.mem_ctrls.perBankWrBursts::11            88832                       # Per bank write bursts
system.mem_ctrls.perBankWrBursts::12            88832                       # Per bank write bursts
system.mem_ctrls.perBankWrBursts::13            88832                       # Per bank write bursts
system.mem_ctrls.perBankWrBursts::14            88832                       # Per bank write bursts
system.mem_ctrls.perBankWrBursts::15            88844                       # Per bank write bursts
system.mem_ctrls.avgRdQLen                       4.00                       # Average read queue length when enqueuing
system.mem_ctrls.avgWrQLen                      26.42                       # Average write queue length when enqueuing
system.mem_ctrls.totQLat                  41560229250                       # Total ticks spent queuing
system.mem_ctrls.totBusLat                 7452640000                       # Total ticks spent in databus transfers
system.mem_ctrls.totMemAccLat             69507629250                       # Total ticks spent from burst creation until serviced by the DRAM
system.mem_ctrls.avgQLat                     27882.89                       # Average queueing delay per DRAM burst
system.mem_ctrls.avgBusLat                    5000.00                       # Average bus latency per DRAM burst
system.mem_ctrls.avgMemAccLat                46632.89                       # Average memory access latency per DRAM burst
system.mem_ctrls.numRdRetry                         0                       # Number of times read queue was full causing retry
system.mem_ctrls.numWrRetry                         0                       # Number of times write queue was full causing retry
system.mem_ctrls.readRowHits                  1342351                       # Number of row buffer hits during reads
system.mem_ctrls.writeRowHits                 1278975                       # Number of row buffer hits during writes
system.mem_ctrls.readRowHitRate                 90.06                       # Row buffer hit rate for reads
system.mem_ctrls.writeRowHitRate                89.92                       # Row buffer hit rate for writes
system.mem_ctrls.readPktSize::0                     0                       # Read request sizes (log2)
system.mem_ctrls.readPktSize::1                     0                       # Read request sizes (log2)
system.mem_ctrls.readPktSize::2                     0                       # Read request sizes (log2)
system.mem_ctrls.readPktSize::3                     0                       # Read request sizes (log2)
system.mem_ctrls.readPktSize::4                     0                       # Read request sizes (log2)
system.mem_ctrls.readPktSize::5                     0                       # Read request sizes (log2)
system.mem_ctrls.readPktSize::6               1490528                       # Read request sizes (log2)
system.mem_ctrls.writePktSize::0                    0                       # Write request sizes (log2)
system.mem_ctrls.writePktSize::1                    0                       # Write request sizes (log2)
system.mem_ctrls.writePktSize::2                    0                       # Write request sizes (log2)
system.mem_ctrls.writePktSize::3                    0                       # Write request sizes (log2)
system.mem_ctrls.writePktSize::4                    0                       # Write request sizes (log2)
system.mem_ctrls.writePktSize::5                    0                       # Write request sizes (log2)
system.mem_ctrls.writePktSize::6              1422400                       # Write request sizes (log2)
system.mem_ctrls.rdQLenPdf::0                  372575                       # What read queue length does an incoming req see
system.mem_ctrls.rdQLenPdf::1                  372575                       # What read queue length does an incoming req see
system.mem_ctrls.rdQLenPdf::2                  372576                       # What read queue length does an incoming req see
system.mem_ctrls.rdQLenPdf::3                  372577                       # What read queue length does an incoming req see
system.mem_ctrls.rdQLenPdf::4                      56                       # What read queue length does an incoming req see
system.mem_ctrls.rdQLenPdf::5                      56                       # What read queue length does an incoming req see
system.mem_ctrls.rdQLenPdf::6                      55                       # What read queue length does an incoming req see
system.mem_ctrls.rdQLenPdf::7                      54                       # What read queue length does an incoming req see
system.mem_ctrls.rdQLenPdf::8                       1                       # What read queue length does an incoming req see
system.mem_ctrls.rdQLenPdf::9                       1                       # What read queue length does an incoming req see
system.mem_ctrls.rdQLenPdf::10                      1                       # What read queue length does an incoming req see
system.mem_ctrls.rdQLenPdf::11                      1                       # What read queue length does an incoming req see
system.mem_ctrls.rdQLenPdf::12                      0                       # What read queue length does an incoming req see
system.mem_ctrls.rdQLenPdf::13                      0                       # What read queue length does an incoming req see
system.mem_ctrls.rdQLenPdf::14                      0                       # What read queue length does an incoming req see
system.mem_ctrls.rdQLenPdf::15                      0                       # What read queue length does an incoming req see
system.mem_ctrls.rdQLenPdf::16                      0                       # What read queue length does an incoming req see
system.mem_ctrls.rdQLenPdf::17                      0                       # What read queue length does an incoming req see
system.mem_ctrls.rdQLenPdf::18                      0                       # What read queue length does an incoming req see
system.mem_ctrls.rdQLenPdf::19                      0                       # What read queue length does an incoming req see
system.mem_ctrls.rdQLenPdf::20                      0                       # What read queue length does an incoming req see
system.mem_ctrls.rdQLenPdf::21                      0                       # What read queue length does an incoming req see
system.mem_ctrls.rdQLenPdf::22                      0                       # What read queue length does an incoming req see
system.mem_ctrls.rdQLenPdf::23                      0                       # What read queue length does an incoming req see
system.mem_ctrls.rdQLenPdf::24                      0                       # What read queue length does an incoming req see
system.mem_ctrls.rdQLenPdf::25                      0                       # What read queue length does an incoming req see
system.mem_ctrls.rdQLenPdf::26                      0                       # What read queue length does an incoming req see
system.mem_ctrls.rdQLenPdf::27                      0                       # What read queue length does an incoming req see
system.mem_ctrls.rdQLenPdf::28                      0                       # What read queue length does an incoming req see
system.mem_ctrls.rdQLenPdf::29                      0                       # What read queue length does an incoming req see
system.mem_ctrls.rdQLenPdf::30                      0                       # What read queue length does an incoming req see
system.mem_ctrls.rdQLenPdf::31                      0                       # What read queue length does an incoming req see
system.mem_ctrls.wrQLenPdf::0                       1                       # What write queue length does an incoming req see
system.mem_ctrls.wrQLenPdf::1                       1                       # What write queue length does an incoming req see
system.mem_ctrls.wrQLenPdf::2                       1                       # What write queue length does an incoming req see
system.mem_ctrls.wrQLenPdf::3                       1                       # What write queue length does an incoming req see
system.mem_ctrls.wrQLenPdf::4                       1                       # What write queue length does an incoming req see
system.mem_ctrls.wrQLenPdf::5                       1                       # What write queue length does an incoming req see
system.mem_ctrls.wrQLenPdf::6                       1                       # What write queue length does an incoming req see
system.mem_ctrls.wrQLenPdf::7                       1                       # What write queue length does an incoming req see
system.mem_ctrls.wrQLenPdf::8                       1                       # What write queue length does an incoming req see
system.mem_ctrls.wrQLenPdf::9                       1                       # What write queue length does an incoming req see
system.mem_ctrls.wrQLenPdf::10                      1                       # What write queue length does an incoming req see
system.mem_ctrls.wrQLenPdf::11                      1                       # What write queue length does an incoming req see
system.mem_ctrls.wrQLenPdf::12                      1                       # What write queue length does an incoming req see
system.mem_ctrls.wrQLenPdf::13                      1                       # What write queue length does an incoming req see
system.mem_ctrls.wrQLenPdf::14                      1                       # What write queue length does an incoming req see
system.mem_ctrls.wrQLenPdf::15                  70184                       # What write queue length does an incoming req see
system.mem_ctrls.wrQLenPdf::16                  70245                       # What write queue length does an incoming req see
system.mem_ctrls.wrQLenPdf::17                  70541                       # What write queue length does an incoming req see
system.mem_ctrls.wrQLenPdf::18                  70627                       # What write queue length does an incoming req see
system.mem_ctrls.wrQLenPdf::19                  71364                       # What write queue length does an incoming req see
system.mem_ctrls.wrQLenPdf::20                  71364                       # What write queue length does an incoming req see
system.mem_ctrls.wrQLenPdf::21                  71364                       # What write queue length does an incoming req see
system.mem_ctrls.wrQLenPdf::22                  71347                       # What write queue length does an incoming req see
system.mem_ctrls.wrQLenPdf::23                  71297                       # What write queue length does an incoming req see
system.mem_ctrls.wrQLenPdf::24                  71393                       # What write queue length does an incoming req see
system.mem_ctrls.wrQLenPdf::25                  71393                       # What write queue length does an incoming req see
system.mem_ctrls.wrQLenPdf::26                  71393                       # What write queue length does an incoming req see
system.mem_ctrls.wrQLenPdf::27                  71393                       # What write queue length does an incoming req see
system.mem_ctrls.wrQLenPdf::28                  71297                       # What write queue length does an incoming req see
system.mem_ctrls.wrQLenPdf::29                  71297                       # What write queue length does an incoming req see
system.mem_ctrls.wrQLenPdf::30                  71297                       # What write queue length does an incoming req see
system.mem_ctrls.wrQLenPdf::31                  71297                       # What write queue length does an incoming req see
system.mem_ctrls.wrQLenPdf::32                  71297                       # What write queue length does an incoming req see
system.mem_ctrls.wrQLenPdf::33                  71001                       # What write queue length does an incoming req see
system.mem_ctrls.wrQLenPdf::34                  70932                       # What write queue length does an incoming req see
system.mem_ctrls.wrQLenPdf::35                     62                       # What write queue length does an incoming req see
system.mem_ctrls.wrQLenPdf::36                      0                       # What write queue length does an incoming req see
system.mem_ctrls.wrQLenPdf::37                      0                       # What write queue length does an incoming req see
system.mem_ctrls.wrQLenPdf::38                      0                       # What write queue length does an incoming req see
system.mem_ctrls.wrQLenPdf::39                      0                       # What write queue length does an incoming req see
system.mem_ctrls.wrQLenPdf::40                      0                       # What write queue length does an incoming req see
system.mem_ctrls.wrQLenPdf::41                      0                       # What write queue length does an incoming req see
system.mem_ctrls.wrQLenPdf::42                      0                       # What write queue length does an incoming req see
system.mem_ctrls.wrQLenPdf::43                      0                       # What write queue length does an incoming req see
system.mem_ctrls.wrQLenPdf::44                      0                       # What write queue length does an incoming req see
system.mem_ctrls.wrQLenPdf::45                      0                       # What write queue length does an incoming req see
system.mem_ctrls.wrQLenPdf::46                      0                       # What write queue length does an incoming req see
system.mem_ctrls.wrQLenPdf::47                      0                       # What write queue length does an incoming req see
system.mem_ctrls.wrQLenPdf::48                      0                       # What write queue length does an incoming req see
system.mem_ctrls.wrQLenPdf::49                      0                       # What write queue length does an incoming req see
system.mem_ctrls.wrQLenPdf::50                      0                       # What write queue length does an incoming req see
system.mem_ctrls.wrQLenPdf::51                      0                       # What write queue length does an incoming req see
system.mem_ctrls.wrQLenPdf::52                      0                       # What write queue length does an incoming req see
system.mem_ctrls.wrQLenPdf::53                      0                       # What write queue length does an incoming req see
system.mem_ctrls.wrQLenPdf::54                      0                       # What write queue length does an incoming req see
system.mem_ctrls.wrQLenPdf::55                      0                       # What write queue length does an incoming req see
system.mem_ctrls.wrQLenPdf::56                      0                       # What write queue length does an incoming req see
system.mem_ctrls.wrQLenPdf::57                      0                       # What write queue length does an incoming req see
system.mem_ctrls.wrQLenPdf::58                      0                       # What write queue length does an incoming req see
system.mem_ctrls.wrQLenPdf::59                      0                       # What write queue length does an incoming req see
system.mem_ctrls.wrQLenPdf::60                      0                       # What write queue length does an incoming req see
system.mem_ctrls.wrQLenPdf::61                      0                       # What write queue length does an incoming req see
system.mem_ctrls.wrQLenPdf::62                      0                       # What write queue length does an incoming req see
system.mem_ctrls.wrQLenPdf::63                      0                       # What write queue length does an incoming req see
system.mem_ctrls.bytesPerActivate::samples       291577                       # Bytes accessed per row activation
system.mem_ctrls.bytesPerActivate::mean    639.366973                       # Bytes accessed per row activation
system.mem_ctrls.bytesPerActivate::gmean   512.162727                       # Bytes accessed per row activation
system.mem_ctrls.bytesPerActivate::stdev   370.117150                       # Bytes accessed per row activation
system.mem_ctrls.bytesPerActivate::0-127         5168      1.77%      1.77% # Bytes accessed per row activation
system.mem_ctrls.bytesPerActivate::128-255         5193      1.78%      3.55% # Bytes accessed per row activation
system.mem_ctrls.bytesPerActivate::256-383       117625     40.34%     43.89% # Bytes accessed per row activation
system.mem_ctrls.bytesPerActivate::384-511         2496      0.86%     44.75% # Bytes accessed per row activation
system.mem_ctrls.bytesPerActivate::512-639        14997      5.14%     49.89% # Bytes accessed per row activation
system.mem_ctrls.bytesPerActivate::640-767         2415      0.83%     50.72% # Bytes accessed per row activation
system.mem_ctrls.bytesPerActivate::768-895        11243      3.86%     54.58% # Bytes accessed per row activation
system.mem_ctrls.bytesPerActivate::896-1023         3026      1.04%     55.62% # Bytes accessed per row activation
system.mem_ctrls.bytesPerActivate::1024-1151       129414     44.38%    100.00% # Bytes accessed per row activation
system.mem_ctrls.bytesPerActivate::total       291577                       # Bytes accessed per row activation
system.mem_ctrls.rdPerTurnAround::samples        71297                       # Reads before turning the bus around for writes
system.mem_ctrls.rdPerTurnAround::mean      20.905788                       # Reads before turning the bus around for writes
system.mem_ctrls.rdPerTurnAround::gmean     19.956267                       # Reads before turning the bus around for writes
system.mem_ctrls.rdPerTurnAround::stdev    241.183509                       # Reads before turning the bus around for writes
system.mem_ctrls.rdPerTurnAround::0-2047        71296    100.00%    100.00% # Reads before turning the bus around for writes
system.mem_ctrls.rdPerTurnAround::63488-65535            1      0.00%    100.00% # Reads before turning the bus around for writes
system.mem_ctrls.rdPerTurnAround::total         71297                       # Reads before turning the bus around for writes
system.mem_ctrls.wrPerTurnAround::samples        71297                       # Writes before turning the bus around for reads
system.mem_ctrls.wrPerTurnAround::mean      19.950026                       # Writes before turning the bus around for reads
system.mem_ctrls.wrPerTurnAround::gmean     19.943635                       # Writes before turning the bus around for reads
[...]
system.cpu.icache.ReadReq_miss_rate::total     0.000134                       # miss rate for ReadReq accesses
system.cpu.icache.ReadReq_avg_miss_latency::.cpu.inst 61113.466334                       # average ReadReq miss latency
system.cpu.icache.ReadReq_avg_miss_latency::total 61113.466334                       # average ReadReq miss latency
system.cpu.icache.ReadReq_mshr_misses::.cpu.inst          401                       # number of ReadReq MSHR misses
system.cpu.icache.ReadReq_mshr_misses::total          401                       # number of ReadReq MSHR misses
system.cpu.icache.ReadReq_mshr_miss_latency::.cpu.inst     24105500                       # number of ReadReq MSHR miss cycles
system.cpu.icache.ReadReq_mshr_miss_latency::total     24105500                       # number of ReadReq MSHR miss cycles
system.cpu.icache.ReadReq_mshr_miss_rate::.cpu.inst     0.000134                       # mshr miss rate for ReadReq accesses
system.cpu.icache.ReadReq_mshr_miss_rate::total     0.000134                       # mshr miss rate for ReadReq accesses
system.cpu.icache.ReadReq_avg_mshr_miss_latency::.cpu.inst 60113.466334                       # average ReadReq mshr miss latency
system.cpu.icache.ReadReq_avg_mshr_miss_latency::total 60113.466334                       # average ReadReq mshr miss latency
system.cpu.icache.tags.pwrStateResidencyTicks::UNDEFINED 100652339000                       # Cumulative time (in ticks) in various power states
system.cpu.icache.tags.tagsinuse           114.985546                       # Cycle average of tags in use
system.cpu.icache.tags.total_refs             2983198                       # Total number of references to valid blocks.
system.cpu.icache.tags.sampled_refs               401                       # Sample count of references to valid blocks.
system.cpu.icache.tags.avg_refs           7439.396509                       # Average number of references to valid blocks.
system.cpu.icache.tags.warmup_cycle            102500                       # Cycle when the warmup percentage was hit.
system.cpu.icache.tags.occ_blocks::.cpu.inst   114.985546                       # Average occupied blocks per requestor
system.cpu.icache.tags.occ_percent::.cpu.inst     0.898325                       # Average percentage of cache occupancy
system.cpu.icache.tags.occ_percent::total     0.898325                       # Average percentage of cache occupancy
system.cpu.icache.tags.occ_task_id_blocks::1024          115                       # Occupied blocks per task id
system.cpu.icache.tags.age_task_id_blocks_1024::4          115                       # Occupied blocks per task id
system.cpu.icache.tags.occ_task_id_percent::1024     0.898438                       # Percentage of cache occupancy per task id
system.cpu.icache.tags.tag_accesses           5966797                       # Number of tag accesses
system.cpu.icache.tags.data_accesses          5966797                       # Number of data accesses
system.cpu.dtb.walker.pwrStateResidencyTicks::UNDEFINED 100652339000                       # Cumulative time (in ticks) in various power states
system.cpu.dtb.stage2_mmu.stage2_tlb.walker.pwrStateResidencyTicks::UNDEFINED 100652339000                       # Cumulative time (in ticks) in various power states
system.cpu.dcache.pwrStateResidencyTicks::UNDEFINED 100652339000                       # Cumulative time (in ticks) in various power states
system.cpu.dcache.demand_hits::.cpu.data     47996502                       # number of demand (read+write) hits
system.cpu.dcache.demand_hits::total         47996502                       # number of demand (read+write) hits
system.cpu.dcache.overall_hits::.cpu.data     47996545                       # number of overall hits
system.cpu.dcache.overall_hits::total        47996545                       # number of overall hits
system.cpu.dcache.demand_misses::.cpu.data       810070                       # number of demand (read+write) misses
system.cpu.dcache.demand_misses::total         810070                       # number of demand (read+write) misses
system.cpu.dcache.overall_misses::.cpu.data       810079                       # number of overall misses
system.cpu.dcache.overall_misses::total        810079                       # number of overall misses
system.cpu.dcache.demand_miss_latency::.cpu.data  81249835500                       # number of demand (read+write) miss cycles
system.cpu.dcache.demand_miss_latency::total  81249835500                       # number of demand (read+write) miss cycles
system.cpu.dcache.overall_miss_latency::.cpu.data  81249835500                       # number of overall miss cycles
system.cpu.dcache.overall_miss_latency::total  81249835500                       # number of overall miss cycles
system.cpu.dcache.demand_accesses::.cpu.data     48806572                       # number of demand (read+write) accesses
system.cpu.dcache.demand_accesses::total     48806572                       # number of demand (read+write) accesses
system.cpu.dcache.overall_accesses::.cpu.data     48806624                       # number of overall (read+write) accesses
system.cpu.dcache.overall_accesses::total     48806624                       # number of overall (read+write) accesses
system.cpu.dcache.demand_miss_rate::.cpu.data     0.016598                       # miss rate for demand accesses
system.cpu.dcache.demand_miss_rate::total     0.016598                       # miss rate for demand accesses
system.cpu.dcache.overall_miss_rate::.cpu.data     0.016598                       # miss rate for overall accesses
system.cpu.dcache.overall_miss_rate::total     0.016598                       # miss rate for overall accesses
system.cpu.dcache.demand_avg_miss_latency::.cpu.data 100299.771007                       # average overall miss latency
system.cpu.dcache.demand_avg_miss_latency::total 100299.771007                       # average overall miss latency
system.cpu.dcache.overall_avg_miss_latency::.cpu.data 100298.656674                       # average overall miss latency
system.cpu.dcache.overall_avg_miss_latency::total 100298.656674                       # average overall miss latency
system.cpu.dcache.blocked_cycles::no_mshrs            0                       # number of cycles access was blocked
system.cpu.dcache.blocked_cycles::no_targets            0                       # number of cycles access was blocked
system.cpu.dcache.blocked::no_mshrs                 0                       # number of cycles access was blocked
system.cpu.dcache.blocked::no_targets               0                       # number of cycles access was blocked
system.cpu.dcache.avg_blocked_cycles::no_mshrs          nan                       # average number of cycles each access was blocked
system.cpu.dcache.avg_blocked_cycles::no_targets          nan                       # average number of cycles each access was blocked
system.cpu.dcache.writebacks::.writebacks       404873                       # number of writebacks
system.cpu.dcache.writebacks::total            404873                       # number of writebacks
system.cpu.dcache.demand_mshr_hits::.cpu.data       393001                       # number of demand (read+write) MSHR hits
system.cpu.dcache.demand_mshr_hits::total       393001                       # number of demand (read+write) MSHR hits
system.cpu.dcache.overall_mshr_hits::.cpu.data       393001                       # number of overall MSHR hits
system.cpu.dcache.overall_mshr_hits::total       393001                       # number of overall MSHR hits
system.cpu.dcache.demand_mshr_misses::.cpu.data       417069                       # number of demand (read+write) MSHR misses
system.cpu.dcache.demand_mshr_misses::total       417069                       # number of demand (read+write) MSHR misses
system.cpu.dcache.overall_mshr_misses::.cpu.data       417073                       # number of overall MSHR misses
system.cpu.dcache.overall_mshr_misses::total       417073                       # number of overall MSHR misses
system.cpu.dcache.demand_mshr_miss_latency::.cpu.data  40963711000                       # number of demand (read+write) MSHR miss cycles
system.cpu.dcache.demand_mshr_miss_latency::total  40963711000                       # number of demand (read+write) MSHR miss cycles
system.cpu.dcache.overall_mshr_miss_latency::.cpu.data  40964132500                       # number of overall MSHR miss cycles
system.cpu.dcache.overall_mshr_miss_latency::total  40964132500                       # number of overall MSHR miss cycles
system.cpu.dcache.demand_mshr_miss_rate::.cpu.data     0.008545                       # mshr miss rate for demand accesses
system.cpu.dcache.demand_mshr_miss_rate::total     0.008545                       # mshr miss rate for demand accesses
system.cpu.dcache.overall_mshr_miss_rate::.cpu.data     0.008545                       # mshr miss rate for overall accesses
system.cpu.dcache.overall_mshr_miss_rate::total     0.008545                       # mshr miss rate for overall accesses
system.cpu.dcache.demand_avg_mshr_miss_latency::.cpu.data 98218.067034                       # average overall mshr miss latency
system.cpu.dcache.demand_avg_mshr_miss_latency::total 98218.067034                       # average overall mshr miss latency
system.cpu.dcache.overall_avg_mshr_miss_latency::.cpu.data 98218.135674                       # average overall mshr miss latency
system.cpu.dcache.overall_avg_mshr_miss_latency::total 98218.135674                       # average overall mshr miss latency
system.cpu.dcache.replacements                 416561                       # number of replacements
system.cpu.dcache.ReadReq_hits::.cpu.data     35687672                       # number of ReadReq hits
system.cpu.dcache.ReadReq_hits::total        35687672                       # number of ReadReq hits
system.cpu.dcache.ReadReq_misses::.cpu.data        23322                       # number of ReadReq misses
system.cpu.dcache.ReadReq_misses::total         23322                       # number of ReadReq misses
system.cpu.dcache.ReadReq_miss_latency::.cpu.data    570247000                       # number of ReadReq miss cycles
system.cpu.dcache.ReadReq_miss_latency::total    570247000                       # number of ReadReq miss cycles
system.cpu.dcache.ReadReq_accesses::.cpu.data     35710994                       # number of ReadReq accesses(hits+misses)
system.cpu.dcache.ReadReq_accesses::total     35710994                       # number of ReadReq accesses(hits+misses)
system.cpu.dcache.ReadReq_miss_rate::.cpu.data     0.000653                       # miss rate for ReadReq accesses
system.cpu.dcache.ReadReq_miss_rate::total     0.000653                       # miss rate for ReadReq accesses
system.cpu.dcache.ReadReq_avg_miss_latency::.cpu.data 24451.033359                       # average ReadReq miss latency
system.cpu.dcache.ReadReq_avg_miss_latency::total 24451.033359                       # average ReadReq miss latency
system.cpu.dcache.ReadReq_mshr_hits::.cpu.data            6                       # number of ReadReq MSHR hits
system.cpu.dcache.ReadReq_mshr_hits::total            6                       # number of ReadReq MSHR hits
system.cpu.dcache.ReadReq_mshr_misses::.cpu.data        23316                       # number of ReadReq MSHR misses
system.cpu.dcache.ReadReq_mshr_misses::total        23316                       # number of ReadReq MSHR misses
system.cpu.dcache.ReadReq_mshr_miss_latency::.cpu.data    546306500                       # number of ReadReq MSHR miss cycles
system.cpu.dcache.ReadReq_mshr_miss_latency::total    546306500                       # number of ReadReq MSHR miss cycles
system.cpu.dcache.ReadReq_mshr_miss_rate::.cpu.data     0.000653                       # mshr miss rate for ReadReq accesses
system.cpu.dcache.ReadReq_mshr_miss_rate::total     0.000653                       # mshr miss rate for ReadReq accesses
system.cpu.dcache.ReadReq_avg_mshr_miss_latency::.cpu.data 23430.541259                       # average ReadReq mshr miss latency
system.cpu.dcache.ReadReq_avg_mshr_miss_latency::total 23430.541259                       # average ReadReq mshr miss latency
system.cpu.dcache.WriteReq_hits::.cpu.data     12308830                       # number of WriteReq hits
system.cpu.dcache.WriteReq_hits::total       12308830                       # number of WriteReq hits
system.cpu.dcache.WriteReq_misses::.cpu.data       786748                       # number of WriteReq misses
system.cpu.dcache.WriteReq_misses::total       786748                       # number of WriteReq misses
system.cpu.dcache.WriteReq_miss_latency::.cpu.data  80679588500                       # number of WriteReq miss cycles
system.cpu.dcache.WriteReq_miss_latency::total  80679588500                       # number of WriteReq miss cycles
system.cpu.dcache.WriteReq_accesses::.cpu.data     13095578                       # number of WriteReq accesses(hits+misses)
system.cpu.dcache.WriteReq_accesses::total     13095578                       # number of WriteReq accesses(hits+misses)
system.cpu.dcache.WriteReq_miss_rate::.cpu.data     0.060077                       # miss rate for WriteReq accesses
system.cpu.dcache.WriteReq_miss_rate::total     0.060077                       # miss rate for WriteReq accesses
system.cpu.dcache.WriteReq_avg_miss_latency::.cpu.data 102548.196500                       # average WriteReq miss latency
system.cpu.dcache.WriteReq_avg_miss_latency::total 102548.196500                       # average WriteReq miss latency
system.cpu.dcache.WriteReq_mshr_hits::.cpu.data       392995                       # number of WriteReq MSHR hits
system.cpu.dcache.WriteReq_mshr_hits::total       392995                       # number of WriteReq MSHR hits
system.cpu.dcache.WriteReq_mshr_misses::.cpu.data       393753                       # number of WriteReq MSHR misses
system.cpu.dcache.WriteReq_mshr_misses::total       393753                       # number of WriteReq MSHR misses
system.cpu.dcache.WriteReq_mshr_miss_latency::.cpu.data  40417404500                       # number of WriteReq MSHR miss cycles
system.cpu.dcache.WriteReq_mshr_miss_latency::total  40417404500                       # number of WriteReq MSHR miss cycles
system.cpu.dcache.WriteReq_mshr_miss_rate::.cpu.data     0.030068                       # mshr miss rate for WriteReq accesses
system.cpu.dcache.WriteReq_mshr_miss_rate::total     0.030068                       # mshr miss rate for WriteReq accesses
system.cpu.dcache.WriteReq_avg_mshr_miss_latency::.cpu.data 102646.594439                       # average WriteReq mshr miss latency
system.cpu.dcache.WriteReq_avg_mshr_miss_latency::total 102646.594439                       # average WriteReq mshr miss latency
system.cpu.dcache.SoftPFReq_hits::.cpu.data           43                       # number of SoftPFReq hits
system.cpu.dcache.SoftPFReq_hits::total            43                       # number of SoftPFReq hits
system.cpu.dcache.SoftPFReq_misses::.cpu.data            9                       # number of SoftPFReq misses
system.cpu.dcache.SoftPFReq_misses::total            9                       # number of SoftPFReq misses
system.cpu.dcache.SoftPFReq_accesses::.cpu.data           52                       # number of SoftPFReq accesses(hits+misses)
system.cpu.dcache.SoftPFReq_accesses::total           52                       # number of SoftPFReq accesses(hits+misses)
system.cpu.dcache.SoftPFReq_miss_rate::.cpu.data     0.173077                       # miss rate for SoftPFReq accesses
system.cpu.dcache.SoftPFReq_miss_rate::total     0.173077                       # miss rate for SoftPFReq accesses
system.cpu.dcache.SoftPFReq_mshr_misses::.cpu.data            4                       # number of SoftPFReq MSHR misses
system.cpu.dcache.SoftPFReq_mshr_misses::total            4                       # number of SoftPFReq MSHR misses
system.cpu.dcache.SoftPFReq_mshr_miss_latency::.cpu.data       421500                       # number of SoftPFReq MSHR miss cycles
system.cpu.dcache.SoftPFReq_mshr_miss_latency::total       421500                       # number of SoftPFReq MSHR miss cycles
system.cpu.dcache.SoftPFReq_mshr_miss_rate::.cpu.data     0.076923                       # mshr miss rate for SoftPFReq accesses
system.cpu.dcache.SoftPFReq_mshr_miss_rate::total     0.076923                       # mshr miss rate for SoftPFReq accesses
system.cpu.dcache.SoftPFReq_avg_mshr_miss_latency::.cpu.data       105375                       # average SoftPFReq mshr miss latency
system.cpu.dcache.SoftPFReq_avg_mshr_miss_latency::total       105375                       # average SoftPFReq mshr miss latency
system.cpu.dcache.LoadLockedReq_hits::.cpu.data           14                       # number of LoadLockedReq hits
system.cpu.dcache.LoadLockedReq_hits::total           14                       # number of LoadLockedReq hits
system.cpu.dcache.LoadLockedReq_accesses::.cpu.data           14                       # number of LoadLockedReq accesses(hits+misses)
system.cpu.dcache.LoadLockedReq_accesses::total           14                       # number of LoadLockedReq accesses(hits+misses)
system.cpu.dcache.StoreCondReq_hits::.cpu.data           14                       # number of StoreCondReq hits
system.cpu.dcache.StoreCondReq_hits::total           14                       # number of StoreCondReq hits
system.cpu.dcache.StoreCondReq_accesses::.cpu.data           14                       # number of StoreCondReq accesses(hits+misses)
system.cpu.dcache.StoreCondReq_accesses::total           14                       # number of StoreCondReq accesses(hits+misses)
system.cpu.dcache.tags.pwrStateResidencyTicks::UNDEFINED 100652339000                       # Cumulative time (in ticks) in various power states
system.cpu.dcache.tags.tagsinuse           511.541263                       # Cycle average of tags in use
system.cpu.dcache.tags.total_refs            48413646                       # Total number of references to valid blocks.
system.cpu.dcache.tags.sampled_refs            417073                       # Sample count of references to valid blocks.
system.cpu.dcache.tags.avg_refs            116.079550                       # Average number of references to valid blocks.
system.cpu.dcache.tags.warmup_cycle            210500                       # Cycle when the warmup percentage was hit.
system.cpu.dcache.tags.occ_blocks::.cpu.data   511.541263                       # Average occupied blocks per requestor
system.cpu.dcache.tags.occ_percent::.cpu.data     0.999104                       # Average percentage of cache occupancy
system.cpu.dcache.tags.occ_percent::total     0.999104                       # Average percentage of cache occupancy
system.cpu.dcache.tags.occ_task_id_blocks::1024          512                       # Occupied blocks per task id
system.cpu.dcache.tags.age_task_id_blocks_1024::0           37                       # Occupied blocks per task id
system.cpu.dcache.tags.age_task_id_blocks_1024::1          331                       # Occupied blocks per task id
system.cpu.dcache.tags.age_task_id_blocks_1024::2          144                       # Occupied blocks per task id
system.cpu.dcache.tags.occ_task_id_percent::1024            1                       # Percentage of cache occupancy per task id
system.cpu.dcache.tags.tag_accesses          49223725                       # Number of tag accesses
system.cpu.dcache.tags.data_accesses         49223725                       # Number of data accesses
system.cpu.itb.walker.pwrStateResidencyTicks::UNDEFINED 100652339000                       # Cumulative time (in ticks) in various power states
system.cpu.itb.stage2_mmu.stage2_tlb.walker.pwrStateResidencyTicks::UNDEFINED 100652339000                       # Cumulative time (in ticks) in various power states

---------- End Simulation Statistics   ----------
